<additional>
	<edgeData id="1" file="../edge_info.xml" excludeEmpty="true" end="3000"/>
	<e3Detector file="grid.det.xml" freq="1" id="e3_1/1_0/1to1/1">
		<detEntry lane="0/1to1/1_0" pos="140.5"/>
		<detExit lane="0/1to1/1_0" pos="-.1"/>
	</e3Detector>
	<e3Detector file="grid.det.xml" freq="1" id="e3_1/1_1/0to1/1">
		<detEntry lane="1/0to1/1_0" pos="140.5"/>
		<detExit lane="1/0to1/1_0" pos="-.1"/>
	</e3Detector>
	<e3Detector file="grid.det.xml" freq="1" id="e3_1/1_1/2to1/1">
		<detEntry lane="1/2to1/1_0" pos="140.5"/>
		<detExit lane="1/2to1/1_0" pos="-.1"/>
	</e3Detector>
	<e3Detector file="grid.det.xml" freq="1" id="e3_1/1_2/1to1/1">
		<detEntry lane="2/1to1/1_0" pos="140.5"/>
		<detExit lane="2/1to1/1_0" pos="-.1"/>
	</e3Detector>
	<e3Detector file="grid.det.xml" freq="1" id="e3_1/2_0/2to1/2">
		<detEntry lane="0/2to1/2_0" pos="140.5"/>
		<detExit lane="0/2to1/2_0" pos="-.1"/>
	</e3Detector>
	<e3Detector file="grid.det.xml" freq="1" id="e3_1/2_1/1to1/2">
		<detEntry lane="1/1to1/2_0" pos="140.5"/>
		<detExit lane="1/1to1/2_0" pos="-.1"/>
	</e3Detector>
	<e3Detector file="grid.det.xml" freq="1" id="e3_1/2_1/3to1/2">
		<detEntry lane="1/3to1/2_0" pos="140.5"/>
		<detExit lane="1/3to1/2_0" pos="-.1"/>
	</e3Detector>
	<e3Detector file="grid.det.xml" freq="1" id="e3_1/2_2/2to1/2">
		<detEntry lane="2/2to1/2_0" pos="140.5"/>
		<detExit lane="2/2to1/2_0" pos="-.1"/>
	</e3Detector>
	<e3Detector file="grid.det.xml" freq="1" id="e3_2/1_1/1to2/1">
		<detEntry lane="1/1to2/1_0" pos="140.5"/>
		<detExit lane="1/1to2/1_0" pos="-.1"/>
	</e3Detector>
	<e3Detector file="grid.det.xml" freq="1" id="e3_2/1_2/0to2/1">
		<detEntry lane="2/0to2/1_0" pos="140.5"/>
		<detExit lane="2/0to2/1_0" pos="-.1"/>
	</e3Detector>
	<e3Detector file="grid.det.xml" freq="1" id="e3_2/1_2/2to2/1">
		<detEntry lane="2/2to2/1_0" pos="140.5"/>
		<detExit lane="2/2to2/1_0" pos="-.1"/>
	</e3Detector>
	<e3Detector file="grid.det.xml" freq="1" id="e3_2/1_3/1to2/1">
		<detEntry lane="3/1to2/1_0" pos="140.5"/>
		<detExit lane="3/1to2/1_0" pos="-.1"/>
	</e3Detector>
	<e3Detector file="grid.det.xml" freq="1" id="e3_2/2_1/2to2/2">
		<detEntry lane="1/2to2/2_0" pos="140.5"/>
		<detExit lane="1/2to2/2_0" pos="-.1"/>
	</e3Detector>
	<e3Detector file="grid.det.xml" freq="1" id="e3_2/2_2/1to2/2">
		<detEntry lane="2/1to2/2_0" pos="140.5"/>
		<detExit lane="2/1to2/2_0" pos="-.1"/>
	</e3Detector>
	<e3Detector file="grid.det.xml" freq="1" id="e3_2/2_2/3to2/2">
		<detEntry lane="2/3to2/2_0" pos="140.5"/>
		<detExit lane="2/3to2/2_0" pos="-.1"/>
	</e3Detector>
	<e3Detector file="grid.det.xml" freq="1" id="e3_2/2_3/2to2/2">
		<detEntry lane="3/2to2/2_0" pos="140.5"/>
		<detExit lane="3/2to2/2_0" pos="-.1"/>
	</e3Detector>
</additional>
