<?xml version="1.0"?>
<!-- generated on 2017-04-06 14:53:24.183000 by $Id: route2trips.py 22929 2017-02-13 14:38:39Z behrisch $ via randomTrips.py
  options: 
-->
<routes xmlns:xsi="http://www.w3.org/2001/XMLSchema-instance" xsi:noNamespaceSchemaLocation="http://sumo.dlr.de/xsd/routes_file.xsd">
    <vType id="passenger" vClass="passenger"/>
    <trip id="veh0" depart="0.00" departLane="best" from="19455457#0" to="-19448298#1" type="passenger"/>
    <trip id="veh1" depart="0.10" departLane="best" from="-19473576#1" to="-19474164#0" type="passenger"/>
    <trip id="veh2" depart="0.19" departLane="best" from="19468764#2" to="19469577#12" type="passenger"/>
    <trip id="veh4" depart="0.39" departLane="best" from="-239574757#3" to="-19448721#4" type="passenger"/>
    <trip id="veh5" depart="0.49" departLane="best" from="-19468178#7" to="19452515" type="passenger"/>
    <trip id="veh6" depart="0.58" departLane="best" from="-19448698#1" to="-19470790#5" type="passenger"/>
    <trip id="veh7" depart="0.68" departLane="best" from="19456021#6" to="19455942#10" type="passenger"/>
    <trip id="veh8" depart="0.78" departLane="best" from="-19468338#6" to="19459192#4" type="passenger"/>
    <trip id="veh9" depart="0.88" departLane="best" from="19478834" to="-110861845#9" type="passenger"/>
    <trip id="veh10" depart="0.97" departLane="best" from="19478247#0" to="19471171#9" type="passenger"/>
    <trip id="veh11" depart="1.07" departLane="best" from="-19480796" to="-19464723#20" type="passenger"/>
    <trip id="veh13" depart="1.27" departLane="best" from="-19454649#10" to="-19456231#5" type="passenger"/>
    <trip id="veh14" depart="1.36" departLane="best" from="19482379#2" to="19460402#5" type="passenger"/>
    <trip id="veh15" depart="1.46" departLane="best" from="19478326#2" to="19474846" type="passenger"/>
    <trip id="veh16" depart="1.56" departLane="best" from="-60834664" to="465700346" type="passenger"/>
    <trip id="veh17" depart="1.66" departLane="best" from="-19483546#1" to="19456341#0" type="passenger"/>
    <trip id="veh18" depart="1.75" departLane="best" from="19481122#4" to="19463632" type="passenger"/>
    <trip id="veh19" depart="1.85" departLane="best" from="19484275#4" to="19458273#1" type="passenger"/>
    <trip id="veh20" depart="1.95" departLane="best" from="19463644#1" to="-19451008#0" type="passenger"/>
    <trip id="veh21" depart="2.05" departLane="best" from="-19468766" to="-19482703" type="passenger"/>
    <trip id="veh22" depart="2.14" departLane="best" from="-19453120#8" to="-19476877#0" type="passenger"/>
    <trip id="veh23" depart="2.24" departLane="best" from="-19455530#5" to="-19481612#1" type="passenger"/>
    <trip id="veh24" depart="2.34" departLane="best" from="19454752#0" to="-293789174#0" type="passenger"/>
    <trip id="veh25" depart="2.44" departLane="best" from="-19482369#3" to="-19472023#3" type="passenger"/>
    <trip id="veh26" depart="2.53" departLane="best" from="-19472037#0" to="352840833#1" type="passenger"/>
    <trip id="veh27" depart="2.63" departLane="best" from="19455942#8" to="19460705#42" type="passenger"/>
    <trip id="veh28" depart="2.73" departLane="best" from="-19460714#0" to="19474846" type="passenger"/>
    <trip id="veh29" depart="2.83" departLane="best" from="-19460398" to="-358904223" type="passenger"/>
    <trip id="veh30" depart="2.92" departLane="best" from="51473271#0" to="19466166#2" type="passenger"/>
    <trip id="veh31" depart="3.02" departLane="best" from="164733410#1-AddedOnRampEdge" to="19469892#6" type="passenger"/>
    <trip id="veh32" depart="3.12" departLane="best" from="19481982#4" to="19480038#1" type="passenger"/>
    <trip id="veh33" depart="3.22" departLane="best" from="-19469486#0" to="-19449314#0" type="passenger"/>
    <trip id="veh34" depart="3.31" departLane="best" from="-19478569#0" to="-19480794#7" type="passenger"/>
    <trip id="veh35" depart="3.41" departLane="best" from="-19467702#1" to="370962869#3" type="passenger"/>
    <trip id="veh36" depart="3.51" departLane="best" from="199423152#1" to="-19485812#1" type="passenger"/>
    <trip id="veh37" depart="3.61" departLane="best" from="19456688#3" to="-464794645#1" type="passenger"/>
    <trip id="veh38" depart="3.70" departLane="best" from="239586107#4" to="19448615#1" type="passenger"/>
    <trip id="veh39" depart="3.80" departLane="best" from="-19471913#0" to="-19478247#0" type="passenger"/>
    <trip id="veh40" depart="3.90" departLane="best" from="180643438#1" to="-19480067#6" type="passenger"/>
    <trip id="veh41" depart="4.00" departLane="best" from="19448721#1" to="239584823#1" type="passenger"/>
    <trip id="veh42" depart="4.09" departLane="best" from="-19485393" to="-19473515#0" type="passenger"/>
    <trip id="veh43" depart="4.19" departLane="best" from="73965074" to="19452783#24" type="passenger"/>
    <trip id="veh44" depart="4.29" departLane="best" from="-19454554#1" to="-19451144#0" type="passenger"/>
    <trip id="veh45" depart="4.39" departLane="best" from="-19456018" to="19464439#4" type="passenger"/>
    <trip id="veh46" depart="4.48" departLane="best" from="19476865#6" to="107398817#9" type="passenger"/>
    <trip id="veh47" depart="4.58" departLane="best" from="-19452084#9" to="-359415537" type="passenger"/>
    <trip id="veh48" depart="4.68" departLane="best" from="73964254" to="19454649#14" type="passenger"/>
    <trip id="veh49" depart="4.78" departLane="best" from="464175538#1" to="226014644#11" type="passenger"/>
    <trip id="veh50" depart="4.87" departLane="best" from="-180643423#5" to="19474076#0" type="passenger"/>
    <trip id="veh51" depart="4.97" departLane="best" from="19459199#1" to="19455524#1" type="passenger"/>
    <trip id="veh52" depart="5.07" departLane="best" from="-19472033#2" to="19466171" type="passenger"/>
    <trip id="veh53" depart="5.17" departLane="best" from="-19456231#2" to="123422441#1" type="passenger"/>
    <trip id="veh54" depart="5.26" departLane="best" from="-239584823#1" to="453616309#4" type="passenger"/>
    <trip id="veh55" depart="5.36" departLane="best" from="19485912#2" to="-19480137#0" type="passenger"/>
    <trip id="veh56" depart="5.46" departLane="best" from="-453616309#6" to="-19468607#8" type="passenger"/>
    <trip id="veh57" depart="5.56" departLane="best" from="239584831#0" to="239574777#0" type="passenger"/>
    <trip id="veh58" depart="5.65" departLane="best" from="-19477247#5" to="19465700" type="passenger"/>
    <trip id="veh59" depart="5.75" departLane="best" from="19452136#5" to="-19464320#1" type="passenger"/>
    <trip id="veh60" depart="5.85" departLane="best" from="19471574#0" to="19455532#1" type="passenger"/>
    <trip id="veh61" depart="5.95" departLane="best" from="19473881#10" to="19454649#9" type="passenger"/>
    <trip id="veh62" depart="6.04" departLane="best" from="-107193983#15" to="-220488130" type="passenger"/>
    <trip id="veh63" depart="6.14" departLane="best" from="-19447491" to="331577556#1" type="passenger"/>
    <trip id="veh64" depart="6.24" departLane="best" from="207706767#2" to="19484409#5" type="passenger"/>
    <trip id="veh65" depart="6.34" departLane="best" from="-19477813#1" to="-19452476#0" type="passenger"/>
    <trip id="veh66" depart="6.43" departLane="best" from="207706767#0" to="39480692#2-AddedOffRampEdge" type="passenger"/>
    <trip id="veh67" depart="6.53" departLane="best" from="-19453825#6" to="19451054#0" type="passenger"/>
    <trip id="veh68" depart="6.63" departLane="best" from="-19452503#1" to="19478908#10" type="passenger"/>
    <trip id="veh69" depart="6.73" departLane="best" from="19471755" to="-19459222#2" type="passenger"/>
    <trip id="veh70" depart="6.82" departLane="best" from="-316571434" to="19456237#2" type="passenger"/>
    <trip id="veh71" depart="6.92" departLane="best" from="-19471913#2" to="239574780#1" type="passenger"/>
    <trip id="veh72" depart="7.02" departLane="best" from="-239574766#1" to="-19472212#0" type="passenger"/>
    <trip id="veh73" depart="7.12" departLane="best" from="-87441225#0" to="19474846" type="passenger"/>
    <trip id="veh74" depart="7.21" departLane="best" from="-19466226#1" to="-19485560#1" type="passenger"/>
    <trip id="veh75" depart="7.31" departLane="best" from="73964252#3" to="19467693#3" type="passenger"/>
    <trip id="veh76" depart="7.41" departLane="best" from="-239576146" to="19453401" type="passenger"/>
    <trip id="veh77" depart="7.51" departLane="best" from="-19456875" to="-19474419#0" type="passenger"/>
    <trip id="veh78" depart="7.60" departLane="best" from="-19480477" to="19459192#15" type="passenger"/>
    <trip id="veh79" depart="7.70" departLane="best" from="-19469490#2" to="-19473881#14" type="passenger"/>
    <trip id="veh80" depart="7.80" departLane="best" from="-19452571#1" to="19464723#18" type="passenger"/>
    <trip id="veh81" depart="7.90" departLane="best" from="-19469373#1" to="245915228#7" type="passenger"/>
    <trip id="veh82" depart="7.99" departLane="best" from="19484078#6" to="-19453332#0" type="passenger"/>
    <trip id="veh83" depart="8.09" departLane="best" from="-19469754#4" to="19468770#1" type="passenger"/>
    <trip id="veh84" depart="8.19" departLane="best" from="-19467850" to="-19459893#5" type="passenger"/>
    <trip id="veh85" depart="8.29" departLane="best" from="309316022#14" to="19458108#0" type="passenger"/>
    <trip id="veh86" depart="8.38" departLane="best" from="-309316022#26" to="19480860#2" type="passenger"/>
    <trip id="veh87" depart="8.48" departLane="best" from="19478327#2" to="-19469828#1" type="passenger"/>
    <trip id="veh89" depart="8.68" departLane="best" from="-239574766#1" to="19449257#2" type="passenger"/>
    <trip id="veh90" depart="8.77" departLane="best" from="19467847#9" to="19469504#4" type="passenger"/>
    <trip id="veh91" depart="8.87" departLane="best" from="468875494" to="-19456330" type="passenger"/>
    <trip id="veh92" depart="8.97" departLane="best" from="-19485438" to="-239576140#3" type="passenger"/>
    <trip id="veh93" depart="9.07" departLane="best" from="19484275#4" to="-19478457" type="passenger"/>
    <trip id="veh94" depart="9.16" departLane="best" from="-19464723#1" to="19443194" type="passenger"/>
    <trip id="veh95" depart="9.26" departLane="best" from="-239574757#3" to="-19481666#13" type="passenger"/>
    <trip id="veh96" depart="9.36" departLane="best" from="-19470644#0" to="309316022#26" type="passenger"/>
    <trip id="veh97" depart="9.46" departLane="best" from="-239576813#1" to="226014644#8" type="passenger"/>
    <trip id="veh98" depart="9.55" departLane="best" from="119882370" to="-19451647#3" type="passenger"/>
    <trip id="veh100" depart="9.75" departLane="best" from="463925328#0" to="309316056#10" type="passenger"/>
    <trip id="veh101" depart="9.85" departLane="best" from="19482672#1" to="-19466957#1" type="passenger"/>
    <trip id="veh102" depart="9.94" departLane="best" from="-354614033" to="-19472500#1" type="passenger"/>
    <trip id="veh103" depart="10.04" departLane="best" from="-19485397#1" to="-19452477" type="passenger"/>
    <trip id="veh104" depart="10.14" departLane="best" from="-19483848#1" to="468134439" type="passenger"/>
    <trip id="veh105" depart="10.24" departLane="best" from="-19471913#5" to="19480825#4" type="passenger"/>
    <trip id="veh106" depart="10.33" departLane="best" from="-239584831#1" to="107398831#3" type="passenger"/>
    <trip id="veh109" depart="10.63" departLane="best" from="-19459347" to="-19483855#0" type="passenger"/>
    <trip id="veh110" depart="10.72" departLane="best" from="463922801#0" to="19458596#3" type="passenger"/>
    <trip id="veh111" depart="10.82" departLane="best" from="107373506#3" to="19477694#12" type="passenger"/>
    <trip id="veh112" depart="10.92" departLane="best" from="-19451647#4" to="19459066#2" type="passenger"/>
    <trip id="veh113" depart="11.02" departLane="best" from="-463526771#0" to="19485910#4" type="passenger"/>
    <trip id="veh114" depart="11.11" departLane="best" from="-19459734" to="463947969#0" type="passenger"/>
    <trip id="veh115" depart="11.21" departLane="best" from="-19453200#2" to="-19469570#3" type="passenger"/>
    <trip id="veh116" depart="11.31" departLane="best" from="19449877#0" to="19469570#9" type="passenger"/>
    <trip id="veh117" depart="11.41" departLane="best" from="-19469577#12" to="-19458842#0" type="passenger"/>
    <trip id="veh118" depart="11.50" departLane="best" from="232926299#1" to="-19478247#0" type="passenger"/>
    <trip id="veh119" depart="11.60" departLane="best" from="19449865#5" to="19463644#2" type="passenger"/>
    <trip id="veh121" depart="11.80" departLane="best" from="-466743569" to="344605828#3" type="passenger"/>
    <trip id="veh122" depart="11.89" departLane="best" from="-19466846#4" to="19473501#2" type="passenger"/>
    <trip id="veh123" depart="11.99" departLane="best" from="-19469758#1" to="-464795269#1" type="passenger"/>
    <trip id="veh124" depart="12.09" departLane="best" from="19458605#3" to="-19484163#3" type="passenger"/>
    <trip id="veh125" depart="12.19" departLane="best" from="-19478569#1" to="19478023#1" type="passenger"/>
    <trip id="veh126" depart="12.28" departLane="best" from="-19452653#1" to="19448547" type="passenger"/>
    <trip id="veh127" depart="12.38" departLane="best" from="73965080#2" to="60834666#1" type="passenger"/>
    <trip id="veh128" depart="12.48" departLane="best" from="-19452739#1" to="-19472381#2" type="passenger"/>
    <trip id="veh129" depart="12.58" departLane="best" from="-19471913#5" to="340808732#1" type="passenger"/>
    <trip id="veh130" depart="12.67" departLane="best" from="208020409#0" to="239575546#2" type="passenger"/>
    <trip id="veh131" depart="12.77" departLane="best" from="-19482369#0" to="-19464758#0" type="passenger"/>
    <trip id="veh132" depart="12.87" departLane="best" from="19481432#1" to="19471598#10" type="passenger"/>
    <trip id="veh133" depart="12.97" departLane="best" from="19452345#0" to="48729800#0" type="passenger"/>
    <trip id="veh134" depart="13.06" departLane="best" from="19456339#0" to="-120254795#0" type="passenger"/>
    <trip id="veh135" depart="13.16" departLane="best" from="19479801#30" to="-19484078#4" type="passenger"/>
    <trip id="veh136" depart="13.26" departLane="best" from="19457616#19" to="357835265#1" type="passenger"/>
    <trip id="veh137" depart="13.36" departLane="best" from="-19458160" to="-19458265#0" type="passenger"/>
    <trip id="veh138" depart="13.45" departLane="best" from="-19455942#3" to="19456602" type="passenger"/>
    <trip id="veh139" depart="13.55" departLane="best" from="-19472946#1" to="19460547#3" type="passenger"/>
    <trip id="veh140" depart="13.65" departLane="best" from="19464980#1" to="-19471233" type="passenger"/>
    <trip id="veh141" depart="13.75" departLane="best" from="19454685#9" to="-19480151" type="passenger"/>
    <trip id="veh142" depart="13.84" departLane="best" from="-358373848#8" to="245915228#6" type="passenger"/>
    <trip id="veh143" depart="13.94" departLane="best" from="19482369#6" to="-19455942#0" type="passenger"/>
    <trip id="veh144" depart="14.04" departLane="best" from="-239574766#1" to="-19481600#2" type="passenger"/>
    <trip id="veh145" depart="14.14" departLane="best" from="-107398787#3" to="19479801#13" type="passenger"/>
    <trip id="veh146" depart="14.23" departLane="best" from="19454912#0" to="-19480038#0" type="passenger"/>
    <trip id="veh147" depart="14.33" departLane="best" from="19469501#0" to="19456339#0" type="passenger"/>
    <trip id="veh148" depart="14.43" departLane="best" from="-239574780#1" to="-120254976#6" type="passenger"/>
    <trip id="veh149" depart="14.53" departLane="best" from="-19452783#31" to="239576149" type="passenger"/>
    <trip id="veh150" depart="14.62" departLane="best" from="239576811#1" to="19455942#6" type="passenger"/>
    <trip id="veh151" depart="14.72" departLane="best" from="19481439#1" to="19458783#8" type="passenger"/>
    <trip id="veh152" depart="14.82" departLane="best" from="-19459160#22" to="-19459222#0" type="passenger"/>
    <trip id="veh153" depart="14.92" departLane="best" from="-19477991#2" to="239584829#0" type="passenger"/>
    <trip id="veh154" depart="15.01" departLane="best" from="19476972#3" to="226014644#10" type="passenger"/>
    <trip id="veh155" depart="15.11" departLane="best" from="239575543" to="-19472028" type="passenger"/>
    <trip id="veh156" depart="15.21" departLane="best" from="-19470639#1" to="-19456876#2" type="passenger"/>
    <trip id="veh157" depart="15.31" departLane="best" from="19473884#0" to="239576153" type="passenger"/>
    <trip id="veh158" depart="15.40" departLane="best" from="-19485710#0" to="19463680#1" type="passenger"/>
    <trip id="veh159" depart="15.50" departLane="best" from="-19459347" to="337393244#10" type="passenger"/>
    <trip id="veh160" depart="15.60" departLane="best" from="19484956#1" to="466490733" type="passenger"/>
    <trip id="veh161" depart="15.70" departLane="best" from="19478908#9" to="239576140#5" type="passenger"/>
    <trip id="veh162" depart="15.79" departLane="best" from="-19448677#1" to="19476967#2" type="passenger"/>
    <trip id="veh163" depart="15.89" departLane="best" from="-19479815#4" to="337406050" type="passenger"/>
    <trip id="veh165" depart="16.09" departLane="best" from="19478908#8" to="-19480429#1" type="passenger"/>
    <trip id="veh166" depart="16.18" departLane="best" from="19474956#4" to="-19457482#1" type="passenger"/>
    <trip id="veh167" depart="16.28" departLane="best" from="19485596#1" to="220488133#6" type="passenger"/>
    <trip id="veh168" depart="16.38" departLane="best" from="-19468341#7" to="19482672#3" type="passenger"/>
    <trip id="veh169" depart="16.48" departLane="best" from="-239614023" to="-19484992#0" type="passenger"/>
    <trip id="veh170" depart="16.57" departLane="best" from="19476972#0" to="-19474890#1" type="passenger"/>
    <trip id="veh171" depart="16.67" departLane="best" from="-19448547" to="-19469892#11" type="passenger"/>
    <trip id="veh173" depart="16.87" departLane="best" from="463526771#0" to="-19481666#9" type="passenger"/>
    <trip id="veh174" depart="16.96" departLane="best" from="19455519#1" to="-465659983#0" type="passenger"/>
    <trip id="veh175" depart="17.06" departLane="best" from="466756639" to="19455518#1" type="passenger"/>
    <trip id="veh176" depart="17.16" departLane="best" from="337393244#1" to="-19458191" type="passenger"/>
    <trip id="veh177" depart="17.26" departLane="best" from="463947970#0" to="-19468607#7" type="passenger"/>
    <trip id="veh178" depart="17.35" departLane="best" from="426757052#1" to="-19480324#1" type="passenger"/>
    <trip id="veh180" depart="17.55" departLane="best" from="19467847#3" to="-19485710#5" type="passenger"/>
    <trip id="veh181" depart="17.65" departLane="best" from="19451763" to="19452783#6" type="passenger"/>
    <trip id="veh182" depart="17.74" departLane="best" from="-19484255" to="19458268" type="passenger"/>
    <trip id="veh183" depart="17.84" departLane="best" from="-19471166" to="19472037#1" type="passenger"/>
    <trip id="veh184" depart="17.94" departLane="best" from="-107193983#4" to="309316056#0" type="passenger"/>
    <trip id="veh185" depart="18.04" departLane="best" from="-73961894#1" to="19473884#2" type="passenger"/>
    <trip id="veh186" depart="18.13" departLane="best" from="19469501#6" to="19469486#1" type="passenger"/>
    <trip id="veh187" depart="18.23" departLane="best" from="-19481813#2" to="-19453120#3" type="passenger"/>
    <trip id="veh189" depart="18.43" departLane="best" from="-19478456#1" to="19485641#1" type="passenger"/>
    <trip id="veh190" depart="18.52" departLane="best" from="19465461#5" to="-19484163#7" type="passenger"/>
    <trip id="veh191" depart="18.62" departLane="best" from="-19478023#1" to="-48729798" type="passenger"/>
    <trip id="veh192" depart="18.72" departLane="best" from="-19485400#9" to="-19483546#0" type="passenger"/>
    <trip id="veh193" depart="18.82" departLane="best" from="-19457433#4" to="107398807" type="passenger"/>
    <trip id="veh194" depart="18.91" departLane="best" from="337577989" to="19469577#8" type="passenger"/>
    <trip id="veh195" depart="19.01" departLane="best" from="239576155#4" to="19462660#2" type="passenger"/>
    <trip id="veh196" depart="19.11" departLane="best" from="-19477390#1" to="19456179#0" type="passenger"/>
    <trip id="veh197" depart="19.21" departLane="best" from="-107193983#13" to="-19482377#9" type="passenger"/>
    <trip id="veh198" depart="19.30" departLane="best" from="-239575382#1" to="19458611" type="passenger"/>
    <trip id="veh199" depart="19.40" departLane="best" from="19456512#2" to="19449223#2" type="passenger"/>
    <trip id="veh200" depart="19.50" departLane="best" from="-239576812" to="-19472500#0" type="passenger"/>
    <trip id="veh201" depart="19.59" departLane="best" from="-309316022#31" to="239586440" type="passenger"/>
    <trip id="veh202" depart="19.69" departLane="best" from="19476972#2" to="-19467826#8" type="passenger"/>
    <trip id="veh203" depart="19.79" departLane="best" from="-19453776#1" to="19453120#5" type="passenger"/>
    <trip id="veh204" depart="19.89" departLane="best" from="19454649#13" to="-239574780#0" type="passenger"/>
    <trip id="veh205" depart="19.98" departLane="best" from="19479810#0" to="19478023#1" type="passenger"/>
    <trip id="veh206" depart="20.08" departLane="best" from="19458645#0" to="-19474419#0" type="passenger"/>
    <trip id="veh207" depart="20.18" departLane="best" from="-19465700" to="-19448117#0" type="passenger"/>
    <trip id="veh208" depart="20.28" departLane="best" from="-19470346" to="19449868#3" type="passenger"/>
    <trip id="veh209" depart="20.37" departLane="best" from="19482701#3" to="-19453659#4" type="passenger"/>
    <trip id="veh210" depart="20.47" departLane="best" from="-220488129#1" to="19464720" type="passenger"/>
    <trip id="veh211" depart="20.57" departLane="best" from="-19464967#1" to="19471166" type="passenger"/>
    <trip id="veh212" depart="20.67" departLane="best" from="-39447439#6" to="-19477694#4" type="passenger"/>
    <trip id="veh213" depart="20.76" departLane="best" from="19456767#4" to="-107398838#4" type="passenger"/>
    <trip id="veh214" depart="20.86" departLane="best" from="19469892#6" to="19479560" type="passenger"/>
    <trip id="veh215" depart="20.96" departLane="best" from="-19455942#1" to="110861845#4" type="passenger"/>
    <trip id="veh216" depart="21.06" departLane="best" from="-19461081" to="463729524#1" type="passenger"/>
    <trip id="veh217" depart="21.15" departLane="best" from="-465506250#1" to="-19451647#10" type="passenger"/>
    <trip id="veh218" depart="21.25" departLane="best" from="-19470639#1" to="19485641#5" type="passenger"/>
    <trip id="veh219" depart="21.35" departLane="best" from="-239586440" to="19481600#3" type="passenger"/>
    <trip id="veh220" depart="21.45" departLane="best" from="19458185#0" to="48729816#1" type="passenger"/>
    <trip id="veh221" depart="21.54" departLane="best" from="19449991#1" to="426757080#1" type="passenger"/>
    <trip id="veh223" depart="21.74" departLane="best" from="19465216#4" to="19452513#3" type="passenger"/>
    <trip id="veh224" depart="21.84" departLane="best" from="19481271#1" to="19456164#1" type="passenger"/>
    <trip id="veh225" depart="21.93" departLane="best" from="239575380#0" to="19477390#1" type="passenger"/>
    <trip id="veh226" depart="22.03" departLane="best" from="-309316022#4" to="-19479810#4" type="passenger"/>
    <trip id="veh227" depart="22.13" departLane="best" from="-19470471#1" to="19465216#5" type="passenger"/>
    <trip id="veh228" depart="22.23" departLane="best" from="19471755" to="19453825#2" type="passenger"/>
    <trip id="veh229" depart="22.32" departLane="best" from="19453776#0" to="-19481432#7" type="passenger"/>
    <trip id="veh230" depart="22.42" departLane="best" from="-19453020#5" to="-19482369#6" type="passenger"/>
    <trip id="veh231" depart="22.52" departLane="best" from="-19472912#3" to="-207869582#3" type="passenger"/>
    <trip id="veh232" depart="22.62" departLane="best" from="107193983#4" to="-19460705#12" type="passenger"/>
    <trip id="veh233" depart="22.71" departLane="best" from="-19469501#4" to="19471091#1" type="passenger"/>
    <trip id="veh234" depart="22.81" departLane="best" from="19463868#1" to="-19452783#0" type="passenger"/>
    <trip id="veh235" depart="22.91" departLane="best" from="-19485714#6" to="19455816#2" type="passenger"/>
    <trip id="veh236" depart="23.01" departLane="best" from="-223686594#10" to="-19471592#3" type="passenger"/>
    <trip id="veh238" depart="23.20" departLane="best" from="19448721#0" to="19471166" type="passenger"/>
    <trip id="veh239" depart="23.30" departLane="best" from="19483852" to="19479405" type="passenger"/>
    <trip id="veh240" depart="23.40" departLane="best" from="-19483857#0" to="-110861845#1" type="passenger"/>
    <trip id="veh241" depart="23.49" departLane="best" from="-19481368#0" to="19478283#2" type="passenger"/>
    <trip id="veh242" depart="23.59" departLane="best" from="19483208" to="439920835" type="passenger"/>
    <trip id="veh244" depart="23.79" departLane="best" from="107398831#2" to="19460402#3" type="passenger"/>
    <trip id="veh245" depart="23.88" departLane="best" from="-19468338#7" to="-19473515#1" type="passenger"/>
    <trip id="veh246" depart="23.98" departLane="best" from="-239575549#1" to="-19448721#0" type="passenger"/>
    <trip id="veh247" depart="24.08" departLane="best" from="-19480209" to="19469754#4" type="passenger"/>
    <trip id="veh248" depart="24.18" departLane="best" from="-19485596#1" to="-19466745#0" type="passenger"/>
    <trip id="veh249" depart="24.27" departLane="best" from="-268944693" to="-19459222#0" type="passenger"/>
    <trip id="veh250" depart="24.37" departLane="best" from="19453114#0" to="-19448697#1" type="passenger"/>
    <trip id="veh251" depart="24.47" departLane="best" from="-19485061#2" to="19457433#3" type="passenger"/>
    <trip id="veh252" depart="24.57" departLane="best" from="-19448700#1" to="19466329#0" type="passenger"/>
    <trip id="veh253" depart="24.66" departLane="best" from="-19458185#2" to="19448700#1" type="passenger"/>
    <trip id="veh254" depart="24.76" departLane="best" from="-19450964#1" to="-358373848#5" type="passenger"/>
    <trip id="veh255" depart="24.86" departLane="best" from="-19467820" to="-223686594#6" type="passenger"/>
    <trip id="veh256" depart="24.96" departLane="best" from="19471233" to="-358373848#5" type="passenger"/>
    <trip id="veh257" depart="25.05" departLane="best" from="19470377#2" to="19484409#5" type="passenger"/>
    <trip id="veh258" depart="25.15" departLane="best" from="-19471003#2" to="-19454752#0" type="passenger"/>
    <trip id="veh259" depart="25.25" departLane="best" from="-19447491" to="19455532#1" type="passenger"/>
    <trip id="veh261" depart="25.44" departLane="best" from="19456164#0" to="19480557#1-AddedOnRampEdge" type="passenger"/>
    <trip id="veh262" depart="25.54" departLane="best" from="19456231#8" to="19478283#2" type="passenger"/>
    <trip id="veh263" depart="25.64" departLane="best" from="358373848#5" to="-19470928" type="passenger"/>
    <trip id="veh264" depart="25.74" departLane="best" from="-19447643" to="-19464189#9" type="passenger"/>
    <trip id="veh265" depart="25.83" departLane="best" from="-19457403#0" to="19469110#0" type="passenger"/>
    <trip id="veh266" depart="25.93" departLane="best" from="182954734" to="-19473437#0" type="passenger"/>
    <trip id="veh267" depart="26.03" departLane="best" from="19461031#0" to="19479425" type="passenger"/>
    <trip id="veh268" depart="26.13" departLane="best" from="-19460674#2" to="19460705#10" type="passenger"/>
    <trip id="veh269" depart="26.22" departLane="best" from="19469828#1" to="-19458189#0" type="passenger"/>
    <trip id="veh270" depart="26.32" departLane="best" from="19479914" to="464795270" type="passenger"/>
    <trip id="veh271" depart="26.42" departLane="best" from="-19455943#7" to="-19448544#0" type="passenger"/>
    <trip id="veh272" depart="26.52" departLane="best" from="-19478322#1" to="19469577#8" type="passenger"/>
    <trip id="veh273" depart="26.61" departLane="best" from="39480692#0" to="-465010714#1" type="passenger"/>
    <trip id="veh274" depart="26.71" departLane="best" from="19464758#0" to="-19454055#0" type="passenger"/>
    <trip id="veh275" depart="26.81" departLane="best" from="19460395#0" to="19464439#1" type="passenger"/>
    <trip id="veh276" depart="26.91" departLane="best" from="-19455532#1" to="19479801#3" type="passenger"/>
    <trip id="veh277" depart="27.00" departLane="best" from="19482795#0" to="19460215#1" type="passenger"/>
    <trip id="veh278" depart="27.10" departLane="best" from="-19456875" to="467278708" type="passenger"/>
    <trip id="veh279" depart="27.20" departLane="best" from="19474164#3" to="-239578088#0" type="passenger"/>
    <trip id="veh280" depart="27.30" departLane="best" from="-239575372#0" to="-340808718#24" type="passenger"/>
    <trip id="veh281" depart="27.39" departLane="best" from="-463929548#1" to="-239576154#0" type="passenger"/>
    <trip id="veh282" depart="27.49" departLane="best" from="19482701#1" to="19483848#3" type="passenger"/>
    <trip id="veh283" depart="27.59" departLane="best" from="-19455816#4" to="463947969#0" type="passenger"/>
    <trip id="veh284" depart="27.69" departLane="best" from="19454752#0" to="19484265#1" type="passenger"/>
    <trip id="veh285" depart="27.78" departLane="best" from="19463949#1" to="123422444" type="passenger"/>