<?xml version="1.0"?>
<!-- generated on 2017-04-06 14:53:46.344000 by $Id: route2trips.py 22929 2017-02-13 14:38:39Z behrisch $ via randomTrips.py
  options: 
-->
<routes xmlns:xsi="http://www.w3.org/2001/XMLSchema-instance" xsi:noNamespaceSchemaLocation="http://sumo.dlr.de/xsd/routes_file.xsd">
    <vType id="truck" vClass="truck"/>
    <trip id="truck0" depart="0.00" departLane="best" from="19457616#18" to="-19448306#1" type="truck"/>
    <trip id="truck1" depart="0.37" departLane="best" from="-19474527#3" to="-19471913#6" type="truck"/>
    <trip id="truck2" depart="0.73" departLane="best" from="19469892#11" to="19468264" type="truck"/>
    <trip id="truck3" depart="1.10" departLane="best" from="226014644#9" to="-19455449#5" type="truck"/>
    <trip id="truck4" depart="1.46" departLane="best" from="-239576150" to="-19448761#0" type="truck"/>
    <trip id="truck5" depart="1.83" departLane="best" from="-19469486#1" to="19450103#3" type="truck"/>
    <trip id="truck6" depart="2.19" departLane="best" from="-19448698#0" to="-19469577#9" type="truck"/>
    <trip id="truck7" depart="2.56" departLane="best" from="19458645#0" to="19453825#6" type="truck"/>
    <trip id="truck8" depart="2.92" departLane="best" from="-19469501#5" to="19457671#3" type="truck"/>
    <trip id="truck9" depart="3.29" departLane="best" from="19479801#10" to="-108045475" type="truck"/>
    <trip id="truck10" depart="3.66" departLane="best" from="19479447#1" to="19469845" type="truck"/>
    <trip id="truck11" depart="4.02" departLane="best" from="-19481439#3" to="-19463160#8" type="truck"/>
    <trip id="truck12" depart="4.39" departLane="best" from="39480692#0" to="-19485346#4" type="truck"/>
    <trip id="truck13" depart="4.75" departLane="best" from="-19454898" to="-19455945#1" type="truck"/>
    <trip id="truck14" depart="5.12" departLane="best" from="19482642#2" to="19459066#2" type="truck"/>
    <trip id="truck15" depart="5.48" departLane="best" from="19479457#3" to="19472871#3" type="truck"/>
    <trip id="truck16" depart="5.85" departLane="best" from="182954734" to="465506250#1" type="truck"/>
    <trip id="truck17" depart="6.21" departLane="best" from="-19484899" to="19454649#3" type="truck"/>
    <trip id="truck18" depart="6.58" departLane="best" from="19481432#0" to="19459882#0" type="truck"/>
    <trip id="truck19" depart="6.95" departLane="best" from="19484275#1" to="19456688#6" type="truck"/>
    <trip id="truck20" depart="7.31" departLane="best" from="19466329#1" to="-19450863#3" type="truck"/>
    <trip id="truck21" depart="7.68" departLane="best" from="-19469820#4" to="-19480918#0" type="truck"/>
    <trip id="truck22" depart="8.04" departLane="best" from="-19453533#4" to="-19473002#0" type="truck"/>
    <trip id="truck23" depart="8.41" departLane="best" from="-19455816#4" to="-19479801#28" type="truck"/>
    <trip id="truck24" depart="8.77" departLane="best" from="19457070#3" to="-239575382#1" type="truck"/>
    <trip id="truck25" depart="9.14" departLane="best" from="-19484078#5" to="-19470591#0" type="truck"/>
    <trip id="truck26" depart="9.51" departLane="best" from="19458273#6" to="19459192#17" type="truck"/>
    <trip id="truck27" depart="9.87" departLane="best" from="-19463160#11" to="19472389#2" type="truck"/>
    <trip id="truck28" depart="10.24" departLane="best" from="-19460705#4" to="-239586106#0" type="truck"/>
    <trip id="truck29" depart="10.60" departLane="best" from="49577556" to="19463632" type="truck"/>
    <trip id="truck30" depart="10.97" departLane="best" from="19449260#2" to="19468766" type="truck"/>
    <trip id="truck31" depart="11.33" departLane="best" from="19482364#0" to="19478908#10" type="truck"/>
    <trip id="truck32" depart="11.70" departLane="best" from="-19469828#1" to="-19449325" type="truck"/>
    <trip id="truck33" depart="12.06" departLane="best" from="-19479801#14" to="-19478505#0" type="truck"/>
    <trip id="truck34" depart="12.43" departLane="best" from="-19468341#12" to="352840833#1" type="truck"/>
    <trip id="truck35" depart="12.80" departLane="best" from="19485714#0" to="-19482701#1" type="truck"/>
    <trip id="truck36" depart="13.16" departLane="best" from="19459160#7" to="-337393244#8" type="truck"/>
    <trip id="truck37" depart="13.53" departLane="best" from="-19473501#4" to="-19475016#0" type="truck"/>
    <trip id="truck38" depart="13.89" departLane="best" from="19449701#1" to="-19477739#0" type="truck"/>
    <trip id="truck39" depart="14.26" departLane="best" from="19452476#0" to="239576815#1" type="truck"/>
    <trip id="truck40" depart="14.62" departLane="best" from="-220488120#1" to="-19471592#10" type="truck"/>
    <trip id="truck41" depart="14.99" departLane="best" from="73964496" to="19450825#0" type="truck"/>
    <trip id="truck42" depart="15.35" departLane="best" from="-19454685#1" to="-19451090#2" type="truck"/>
    <trip id="truck43" depart="15.72" departLane="best" from="-19456327#0" to="19460705#17" type="truck"/>
    <trip id="truck44" depart="16.09" departLane="best" from="19477462" to="-464797412#4" type="truck"/>
    <trip id="truck45" depart="16.45" departLane="best" from="-19452301#0" to="-239612081#0" type="truck"/>
    <trip id="truck46" depart="16.82" departLane="best" from="73964249#1" to="19452597#1" type="truck"/>
    <trip id="truck47" depart="17.18" departLane="best" from="464795269#1" to="19485596#1" type="truck"/>
    <trip id="truck48" depart="17.55" departLane="best" from="-120254982#1" to="19471598#8" type="truck"/>
    <trip id="truck49" depart="17.91" departLane="best" from="-19473881#2" to="19463677" type="truck"/>
    <trip id="truck50" depart="18.28" departLane="best" from="-337393244#3" to="426757052#10" type="truck"/>
    <trip id="truck51" depart="18.64" departLane="best" from="19485710#3" to="-19477811#3" type="truck"/>
    <trip id="truck52" depart="19.01" departLane="best" from="-468134439" to="-19467693#1" type="truck"/>
    <trip id="truck53" depart="19.38" departLane="best" from="239584821#1" to="220488119" type="truck"/>
    <trip id="truck54" depart="19.74" departLane="best" from="-19478023#1" to="19463160#9" type="truck"/>
    <trip id="truck55" depart="20.11" departLane="best" from="19454685#9" to="-19462590#1" type="truck"/>
    <trip id="truck56" depart="20.47" departLane="best" from="19472871#5" to="19453332#0" type="truck"/>
    <trip id="truck57" depart="20.84" departLane="best" from="-107193983#13" to="-19483857#1" type="truck"/>
    <trip id="truck58" depart="21.20" departLane="best" from="-19445889#3" to="309316022#3" type="truck"/>
    <trip id="truck59" depart="21.57" departLane="best" from="19485912#0" to="19482687#5" type="truck"/>
    <trip id="truck60" depart="21.93" departLane="best" from="-19479014#1" to="-19452298#8" type="truck"/>
    <trip id="truck61" depart="22.30" departLane="best" from="19485910#0" to="358373850#1" type="truck"/>
    <trip id="truck62" depart="22.67" departLane="best" from="-19452783#10" to="19477338#1" type="truck"/>
    <trip id="truck63" depart="23.03" departLane="best" from="19473027#1" to="-19459160#9" type="truck"/>
    <trip id="truck64" depart="23.40" departLane="best" from="-453616309#6" to="19454571#1" type="truck"/>
    <trip id="truck65" depart="23.76" departLane="best" from="-19473501#6" to="220488127#1" type="truck"/>
    <trip id="truck66" depart="24.13" departLane="best" from="-239576155#6" to="-19470790#6" type="truck"/>
    <trip id="truck67" depart="24.49" departLane="best" from="19441343#0" to="19472871#5" type="truck"/>
    <trip id="truck68" depart="24.86" departLane="best" from="-19467702#0" to="-19482377#8" type="truck"/>
    <trip id="truck69" depart="25.22" departLane="best" from="60834668#6" to="19464720" type="truck"/>
    <trip id="truck70" depart="25.59" departLane="best" from="-239614017#0" to="19451702#3" type="truck"/>
    <trip id="truck71" depart="25.96" departLane="best" from="-19481425#0" to="19457616#8" type="truck"/>
    <trip id="truck72" depart="26.32" departLane="best" from="-19469848#2" to="-19471592#19" type="truck"/>
    <trip id="truck73" depart="26.69" departLane="best" from="-19452783#26" to="19460714#5" type="truck"/>
    <trip id="truck74" depart="27.05" departLane="best" from="-19469828#0" to="239584823#1" type="truck"/>
    <trip id="truck75" depart="27.42" departLane="best" from="19484163#0" to="-19453120#16" type="truck"/>
    <trip id="truck76" depart="27.78" departLane="best" from="-19470639#1" to="19467702#1" type="truck"/>
    <trip id="truck77" depart="28.15" departLane="best" from="-19468608" to="-19459192#6" type="truck"/>
    <trip id="truck78" depart="28.52" departLane="best" from="309316022#23" to="19456179#6" type="truck"/>
    <trip id="truck79" depart="28.88" departLane="best" from="-43069098#1" to="19479607#3" type="truck"/>
    <trip id="truck80" depart="29.25" departLane="best" from="19479459#3" to="-19468764#11" type="truck"/>
    <trip id="truck81" depart="29.61" departLane="best" from="-19455530#12" to="-466949437#0" type="truck"/>
    <trip id="truck82" depart="29.98" departLane="best" from="-239576812" to="176200968#0" type="truck"/>
    <trip id="truck83" depart="30.34" departLane="best" from="19469577#0" to="19468073#1" type="truck"/>
    <trip id="truck85" depart="31.07" departLane="best" from="-220548207#1" to="-19485441#0" type="truck"/>
    <trip id="truck86" depart="31.44" departLane="best" from="19484275#1" to="-19475106#0" type="truck"/>
    <trip id="truck87" depart="31.81" departLane="best" from="-19465461#0" to="107398814#4" type="truck"/>
    <trip id="truck88" depart="32.17" departLane="best" from="-239576150" to="-19479801#33" type="truck"/>
    <trip id="truck89" depart="32.54" departLane="best" from="-19471592#21" to="288395868#1-AddedOnRampEdge" type="truck"/>
    <trip id="truck90" depart="32.90" departLane="best" from="-251701850" to="19485641#0" type="truck"/>
    <trip id="truck91" depart="33.27" departLane="best" from="19448298#2" to="-19451647#10" type="truck"/>
    <trip id="truck92" depart="33.63" departLane="best" from="87441225#1" to="19483354#1" type="truck"/>
    <trip id="truck93" depart="34.00" departLane="best" from="463947970#1" to="309316000" type="truck"/>
    <trip id="truck94" depart="34.36" departLane="best" from="19482687#2" to="-19464723#5" type="truck"/>
    <trip id="truck95" depart="34.73" departLane="best" from="-465023884#1" to="-19471091#1" type="truck"/>
    <trip id="truck97" depart="35.46" departLane="best" from="-19473515#1" to="19479557#1" type="truck"/>
    <trip id="truck98" depart="35.83" departLane="best" from="-340808718#12" to="-465010714#3" type="truck"/>
    <trip id="truck99" depart="36.19" departLane="best" from="39480692#0" to="60834666#0" type="truck"/>
    <trip id="truck100" depart="36.56" departLane="best" from="19448761#0" to="19471592#2" type="truck"/>
    <trip id="truck101" depart="36.92" departLane="best" from="-19460106#3" to="-19481432#8" type="truck"/>
    <trip id="truck102" depart="37.29" departLane="best" from="463947969#0" to="19456786" type="truck"/>
    <trip id="truck103" depart="37.65" departLane="best" from="19444752" to="19474956#1" type="truck"/>
    <trip id="truck104" depart="38.02" departLane="best" from="-19451985#3" to="19457433#1" type="truck"/>
    <trip id="truck105" depart="38.39" departLane="best" from="-48729808" to="19485067#3" type="truck"/>
    <trip id="truck106" depart="38.75" departLane="best" from="-19460402#0" to="463725869" type="truck"/>
    <trip id="truck107" depart="39.12" departLane="best" from="-19453659#1" to="-19468338#2" type="truck"/>
    <trip id="truck108" depart="39.48" departLane="best" from="19453114#1" to="19468178#10" type="truck"/>
    <trip id="truck109" depart="39.85" departLane="best" from="-19470439#5" to="-19458189#1" type="truck"/>
    <trip id="truck110" depart="40.21" departLane="best" from="223687991#1" to="-19474956#7" type="truck"/>
    <trip id="truck111" depart="40.58" departLane="best" from="19453082#1" to="19459893#6" type="truck"/>
    <trip id="truck112" depart="40.94" departLane="best" from="-239575549#2" to="19457161#1" type="truck"/>
    <trip id="truck113" depart="41.31" departLane="best" from="120254976#12" to="337393244#2" type="truck"/>
    <trip id="truck114" depart="41.68" departLane="best" from="-19467850" to="19471316#6" type="truck"/>
    <trip id="truck115" depart="42.04" departLane="best" from="-19470644#1" to="-337402032" type="truck"/>
    <trip id="truck116" depart="42.41" departLane="best" from="19460547#0" to="-19481611#6" type="truck"/>
    <trip id="truck117" depart="42.77" departLane="best" from="-19479801#21" to="19475597#2" type="truck"/>
    <trip id="truck118" depart="43.14" departLane="best" from="-19452936#2" to="120905454" type="truck"/>
    <trip id="truck119" depart="43.50" departLane="best" from="73965074" to="60834668#0" type="truck"/>
    <trip id="truck120" depart="43.87" departLane="best" from="-19453020#3" to="-19471003#1" type="truck"/>
    <trip id="truck121" depart="44.23" departLane="best" from="-19473515#1" to="316571434" type="truck"/>
    <trip id="truck122" depart="44.60" departLane="best" from="207706767#0" to="237603058#0" type="truck"/>
    <trip id="truck123" depart="44.97" departLane="best" from="-19483972" to="-19463687" type="truck"/>
    <trip id="truck124" depart="45.33" departLane="best" from="19481612#1" to="19470377#2" type="truck"/>
    <trip id="truck125" depart="45.70" departLane="best" from="19454756#1" to="48729816#1" type="truck"/>
    <trip id="truck126" depart="46.06" departLane="best" from="19459160#13" to="-119881989#1" type="truck"/>
    <trip id="truck127" depart="46.43" departLane="best" from="19480137#0" to="-19481611#0" type="truck"/>
    <trip id="truck128" depart="46.79" departLane="best" from="19459539#5" to="341682943" type="truck"/>
    <trip id="truck129" depart="47.16" departLane="best" from="-19458273#5" to="-19458042#12" type="truck"/>
    <trip id="truck130" depart="47.53" departLane="best" from="-19474245#5" to="19459160#15" type="truck"/>
    <trip id="truck131" depart="47.89" departLane="best" from="19468341#4" to="-19469877#0" type="truck"/>
    <trip id="truck132" depart="48.26" departLane="best" from="19456975#0" to="-19477991#3" type="truck"/>
    <trip id="truck133" depart="48.62" departLane="best" from="-465496990" to="239584823#1" type="truck"/>
    <trip id="truck134" depart="48.99" departLane="best" from="19482377#8" to="-19455816#0" type="truck"/>
    <trip id="truck135" depart="49.35" departLane="best" from="-239576812" to="-19479801#15" type="truck"/>
    <trip id="truck136" depart="49.72" departLane="best" from="-107373506#4" to="19478322#6" type="truck"/>
    <trip id="truck137" depart="50.08" departLane="best" from="19457433#3" to="-19477694#2" type="truck"/>
    <trip id="truck138" depart="50.45" departLane="best" from="19470633#0" to="19454649#14" type="truck"/>
    <trip id="truck139" depart="50.82" departLane="best" from="-239576823" to="-120254796#5" type="truck"/>
    <trip id="truck140" depart="51.18" departLane="best" from="-19453120#1" to="239574766#1" type="truck"/>
    <trip id="truck141" depart="51.55" departLane="best" from="239576148" to="19454027#0" type="truck"/>
    <trip id="truck142" depart="51.91" departLane="best" from="-19459222#3" to="-19459160#2" type="truck"/>
    <trip id="truck143" depart="52.28" departLane="best" from="-19479234#0" to="239576820" type="truck"/>
    <trip id="truck144" depart="52.64" departLane="best" from="19477739#2" to="19485596#0" type="truck"/>
    <trip id="truck145" depart="53.01" departLane="best" from="239575372#0" to="-19470636" type="truck"/>
    <trip id="truck146" depart="53.37" departLane="best" from="-19471592#19" to="-19456339#4" type="truck"/>
    <trip id="truck147" depart="53.74" departLane="best" from="19475026#2" to="239574774" type="truck"/>
    <trip id="truck148" depart="54.11" departLane="best" from="-232926297" to="19460106#7" type="truck"/>
    <trip id="truck149" depart="54.47" departLane="best" from="-19460106#10" to="309316022#38" type="truck"/>
    <trip id="truck150" depart="54.84" departLane="best" from="19484810#6" to="466467379" type="truck"/>
    <trip id="truck151" depart="55.20" departLane="best" from="19479801#23" to="239574751#3" type="truck"/>
    <trip id="truck152" depart="55.57" departLane="best" from="-19448615#0" to="19473881#4" type="truck"/>
    <trip id="truck153" depart="55.93" departLane="best" from="-19481133#1" to="309316022#8" type="truck"/>
    <trip id="truck154" depart="56.30" departLane="best" from="19478834" to="19485714#4" type="truck"/>
    <trip id="truck155" depart="56.66" departLane="best" from="19479801#23" to="-19478456#1" type="truck"/>
    <trip id="truck156" depart="57.03" departLane="best" from="19476972#0" to="-19457066#0" type="truck"/>
    <trip id="truck157" depart="57.40" departLane="best" from="-19469570#4" to="19481666#6" type="truck"/>
    <trip id="truck158" depart="57.76" departLane="best" from="-349584038#1" to="-19481828#6" type="truck"/>
    <trip id="truck159" depart="58.13" departLane="best" from="19477694#4" to="-19472364#3" type="truck"/>
    <trip id="truck160" depart="58.49" departLane="best" from="-19448306#3" to="-19469490#0" type="truck"/>
    <trip id="truck161" depart="58.86" departLane="best" from="-19480860#3" to="19485714#6" type="truck"/>
    <trip id="truck162" depart="59.22" departLane="best" from="463729525#2" to="-19479801#6" type="truck"/>
    <trip id="truck163" depart="59.59" departLane="best" from="19457671#1" to="-340808732#2" type="truck"/>
    <trip id="truck164" depart="59.95" departLane="best" from="337393244#0" to="-19458042#11" type="truck"/>
    <trip id="truck165" depart="60.32" departLane="best" from="464794645#0" to="-19467693#0" type="truck"/>
    <trip id="truck166" depart="60.69" departLane="best" from="43069098#0" to="-19478322#1" type="truck"/>
    <trip id="truck168" depart="61.42" departLane="best" from="19469570#4" to="-19482672#2" type="truck"/>
    <trip id="truck169" depart="61.78" departLane="best" from="19454571#0" to="19451090#3" type="truck"/>
    <trip id="truck170" depart="62.15" departLane="best" from="-19485391#0" to="19456688#0" type="truck"/>
    <trip id="truck171" depart="62.51" departLane="best" from="-19472023#6" to="19470790#4" type="truck"/>
    <trip id="truck172" depart="62.88" departLane="best" from="-107193983#6" to="293924029#1" type="truck"/>
    <trip id="truck173" depart="63.25" departLane="best" from="19440654" to="19471598#0" type="truck"/>
    <trip id="truck174" depart="63.61" departLane="best" from="19470687#0" to="19467826#6" type="truck"/>
    <trip id="truck175" depart="63.98" departLane="best" from="-19483224#4" to="-19453116" type="truck"/>
    <trip id="truck176" depart="64.34" departLane="best" from="19459701" to="-19484810#4" type="truck"/>
    <trip id="truck177" depart="64.71" departLane="best" from="-19479560" to="19484810#3" type="truck"/>
    <trip id="truck178" depart="65.07" departLane="best" from="19468607#9" to="-19481612#1" type="truck"/>
    <trip id="truck179" depart="65.44" departLane="best" from="-19479391" to="-370962869#1" type="truck"/>
    <trip id="truck180" depart="65.80" departLane="best" from="-220488134#1" to="-19481425#5" type="truck"/>
    <trip id="truck181" depart="66.17" departLane="best" from="-19458042#4" to="-464175538#1" type="truck"/>
    <trip id="truck182" depart="66.54" departLane="best" from="337393244#8" to="19468338#10" type="truck"/>
    <trip id="truck183" depart="66.90" departLane="best" from="239576140#5" to="19459589" type="truck"/>
    <trip id="truck184" depart="67.27" departLane="best" from="-107193983#12" to="-19480564#0" type="truck"/>
    <trip id="truck185" depart="67.63" departLane="best" from="-239578083#1" to="19456875" type="truck"/>
    <trip id="truck186" depart="68.00" departLane="best" from="19459160#2" to="132978303" type="truck"/>
    <trip id="truck187" depart="68.36" departLane="best" from="-245915271#1" to="-19471091#1" type="truck"/>
    <trip id="truck188" depart="68.73" departLane="best" from="-43073308#4" to="239578082#0" type="truck"/>
    <trip id="truck189" depart="69.09" departLane="best" from="19477739#1" to="-19464980#3" type="truck"/>
    <trip id="truck190" depart="69.46" departLane="best" from="-19454055#6" to="19451647#11" type="truck"/>
    <trip id="truck191" depart="69.83" departLane="best" from="19456876#0" to="-19485096#6" type="truck"/>
    <trip id="truck192" depart="70.19" departLane="best" from="19480305" to="19475106#1" type="truck"/>
    <trip id="truck193" depart="70.56" departLane="best" from="19460645#5" to="-19472026" type="truck"/>
    <trip id="truck194" depart="70.92" departLane="best" from="19482795#0" to="-19453401" type="truck"/>
    <trip id="truck195" depart="71.29" departLane="best" from="-239575377" to="19460705#47" type="truck"/>
    <trip id="truck196" depart="71.65" departLane="best" from="-19466329#1" to="19469807" type="truck"/>
    <trip id="truck197" depart="72.02" departLane="best" from="-466743569" to="-19474553#4" type="truck"/>
    <trip id="truck198" depart="72.38" departLane="best" from="19459162#3" to="-107398832#1" type="truck"/>
    <trip id="truck199" depart="72.75" departLane="best" from="19471592#15" to="19478283#2" type="truck"/>
    <trip id="truck200" depart="73.12" departLane="best" from="-19456179#2" to="-465492641#8" type="truck"/>
    <trip id="truck201" depart="73.48" departLane="best" from="-19463942#1" to="453616309#1" type="truck"/>
    <trip id="truck202" depart="73.85" departLane="best" from="108045475" to="-19451613#0" type="truck"/>
    <trip id="truck203" depart="74.21" departLane="best" from="-340808718#25" to="19480917#1" type="truck"/>
    <trip id="truck204" depart="74.58" departLane="best" from="19459897#1" to="48729817#13" type="truck"/>
    <trip id="truck205" depart="74.94" departLane="best" from="19453120#10" to="39447199#2" type="truck"/>
    <trip id="truck206" depart="75.31" departLane="best" from="226014644#12" to="19459222#3" type="truck"/>
    <trip id="truck207" depart="75.67" departLane="best" from="19468607#4" to="19450035#5" type="truck"/>
    <trip id="truck208" depart="76.04" departLane="best" from="19481439#0" to="19454229#5" type="truck"/>
    <trip id="truck209" depart="76.41" departLane="best" from="239574766#0" to="19474419#1" type="truck"/>
    <trip id="truck210" depart="76.77" departLane="best" from="-439920835" to="-19477462" type="truck"/>
    <trip id="truck211" depart="77.14" departLane="best" from="-19471316#6" to="19463160#10" type="truck"/>
    <trip id="truck212" depart="77.50" departLane="best" from="19473027#1" to="19452084#7" type="truck"/>
    <trip id="truck213" depart="77.87" departLane="best" from="19456231#2" to="-19479459#7" type="truck"/>
    <trip id="truck214" depart="78.23" departLane="best" from="-19453332#1" to="-19480324#2" type="truck"/>
    <trip id="truck215" depart="78.60" departLane="best" from="-19474242#2" to="-19483224#3" type="truck"/>
    <trip id="truck216" depart="78.96" departLane="best" from="19442177" to="-19459893#2" type="truck"/>
    <trip id="truck217" depart="79.33" departLane="best" from="-19469892#10" to="19469577#8" type="truck"/>
    <trip id="truck218" depart="79.70" departLane="best" from="19466846#6" to="-19452783#0" type="truck"/>
    <trip id="truck220" depart="80.43" departLane="best" from="-239575540" to="-19470377#2" type="truck"/>
    <trip id="truck221" depart="80.79" departLane="best" from="-239576142#0" to="239584821#0" type="truck"/>
    <trip id="truck222" depart="81.16" departLane="best" from="19452345#0" to="19469754#4" type="truck"/>
    <trip id="truck223" depart="81.52" departLane="best" from="19483855#0" to="19477694#2" type="truck"/>
    <trip id="truck224" depart="81.89" departLane="best" from="-19485061#2" to="-107398838#0" type="truck"/>
    <trip id="truck225" depart="82.26" departLane="best" from="-19481982#2" to="19475676#1" type="truck"/>
    <trip id="truck226" depart="82.62" departLane="best" from="19483224#1" to="426757052#10" type="truck"/>
    <trip id="truck227" depart="82.99" departLane="best" from="-239575549#2" to="19474846" type="truck"/>
    <trip id="truck228" depart="83.35" departLane="best" from="19446031" to="19458971" type="truck"/>
    <trip id="truck229" depart="83.72" departLane="best" from="-19469501#6" to="-19471592#11" type="truck"/>
    <trip id="truck230" depart="84.08" departLane="best" from="-239586441" to="-19448721#2" type="truck"/>
    <trip id="truck231" depart="84.45" departLane="best" from="-19481368#1" to="19468341#12" type="truck"/>
    <trip id="truck232" depart="84.81" departLane="best" from="-226014642#2" to="-19464723#21" type="truck"/>
    <trip id="truck233" depart="85.18" departLane="best" from="-388252019#0" to="-19459160#21" type="truck"/>
    <trip id="truck234" depart="85.55" departLane="best" from="19455942#5" to="-19448697#1" type="truck"/>
    <trip id="truck235" depart="85.91" departLane="best" from="-19485812#2" to="19455816#4" type="truck"/>
    <trip id="truck236" depart="86.28" departLane="best" from="-19448700#1" to="19463942#1" type="truck"/>
    <trip id="truck238" depart="87.01" departLane="best" from="-19451178#0" to="-239584832#2" type="truck"/>
    <trip id="truck239" depart="87.37" departLane="best" from="-19468341#6" to="-19484265#0" type="truck"/>
    <trip id="truck240" depart="87.74" departLane="best" from="19472381#4" to="-239584832#3" type="truck"/>
    <trip id="truck241" depart="88.10" departLane="best" from="19471592#5" to="19482701#2" type="truck"/>
    <trip id="truck242" depart="88.47" departLane="best" from="-19471724" to="-19454649#0" type="truck"/>
    <trip id="truck243" depart="88.84" departLane="best" from="-19445889#3" to="19453332#1" type="truck"/>
    <trip id="truck244" depart="89.20" departLane="best" from="19458645#0" to="19479447#0" type="truck"/>
    <trip id="truck245" depart="89.57" departLane="best" from="19458809" to="19475799#5" type="truck"/>
    <trip id="truck246" depart="89.93" departLane="best" from="357835264" to="-19469754#1" type="truck"/>
    <trip id="truck247" depart="90.30" departLane="best" from="-19447258" to="-19461031#9" type="truck"/>
    <trip id="truck248" depart="90.66" departLane="best" from="-19458042#1" to="19467734" type="truck"/>
    <trip id="truck249" depart="91.03" departLane="best" from="19449863#7" to="-19471316#6" type="truck"/>
    <trip id="truck250" depart="91.39" departLane="best" from="19464787#2" to="19477811#2" type="truck"/>
    <trip id="truck251" depart="91.76" departLane="best" from="-19461025" to="19459169#0" type="truck"/>
    <trip id="truck252" depart="92.13" departLane="best" from="19471233" to="-19457671#0" type="truck"/>
    <trip id="truck253" depart="92.49" departLane="best" from="19480364" to="464175538#1" type="truck"/>
    <trip id="truck254" depart="92.86" departLane="best" from="-19456231#6" to="-19448549" type="truck"/>
    <trip id="truck255" depart="93.22" departLane="best" from="-19479457#0" to="19468338#11" type="truck"/>
    <trip id="truck256" depart="93.59" departLane="best" from="39480692#2-AddedOnRampEdge" to="-340808718#14" type="truck"/>
    <trip id="truck257" depart="93.95" departLane="best" from="19468178#2" to="-19453776#4" type="truck"/>
    <trip id="truck258" depart="94.32" departLane="best" from="19464189#10" to="19460705#14" type="truck"/>
    <trip id="truck259" depart="94.68" departLane="best" from="-19455858#1" to="19478456#0" type="truck"/>
    <trip id="truck260" depart="95.05" departLane="best" from="19483123#10" to="19458611" type="truck"/>
    <trip id="truck261" depart="95.42" departLane="best" from="-19457433#14" to="467500089" type="truck"/>
    <trip id="truck262" depart="95.78" departLane="best" from="19475630#2" to="-207706767#3" type="truck"/>
    <trip id="truck263" depart="96.15" departLane="best" from="-239577502" to="-239576813#0" type="truck"/>
    <trip id="truck264" depart="96.51" departLane="best" from="-60834666#1" to="-19485641#5" type="truck"/>
    <trip id="truck265" depart="96.88" departLane="best" from="19482795#0" to="19481982#0" type="truck"/>
    <trip id="truck266" depart="97.24" departLane="best" from="-19456021#2" to="463725869" type="truck"/>
    <trip id="truck267" depart="97.61" departLane="best" from="19457070#2" to="19482377#7" type="truck"/>
    <trip id="truck268" depart="97.97" departLane="best" from="19466957#4" to="-48729798" type="truck"/>
    <trip id="truck269" depart="98.34" departLane="best" from="19469845" to="464198176" type="truck"/>
    <trip id="truck270" depart="98.71" departLane="best" from="-19474140#4" to="19481420#2" type="truck"/>
    <trip id="truck271" depart="99.07" departLane="best" from="182954901#1" to="19448298#1" type="truck"/>
    <trip id="truck272" depart="99.44" departLane="best" from="-239586440" to="19472912#1" type="truck"/>
    <trip id="truck273" depart="99.80" departLane="best" from="-19473884#2" to="19485061#2" type="truck"/>
    <trip id="truck274" depart="100.17" departLane="best" from="19481439#2" to="-19455449#2" type="truck"/>
    <trip id="truck275" depart="100.53" departLane="best" from="207706767#7" to="-19474553#3" type="truck"/>
    <trip id="truck276" depart="100.90" departLane="best" from="-358373848#7" to="19459192#5" type="truck"/>
    <trip id="truck277" depart="101.27" departLane="best" from="-19484911" to="-19448721#0" type="truck"/>
    <trip id="truck278" depart="101.63" departLane="best" from="19483123#5" to="-19468073#0" type="truck"/>
    <trip id="truck279" depart="102.00" departLane="best" from="-19468512#0" to="19480825#1" type="truck"/>