<?xml version="1.0" encoding="UTF-8"?>

<!-- generated on Sun Apr 30 00:16:34 2017 by SUMO Version 0.26.0
<?xml version="1.0" encoding="UTF-8"?>

<configuration xmlns:xsi="http://www.w3.org/2001/XMLSchema-instance" xsi:noNamespaceSchemaLocation="http://sumo.dlr.de/xsd/sumoConfiguration.xsd">

    <input>
        <net-file value="sumo/Vanderbilt.net.xml"/>
        <route-files value="sumo/new_random.xml"/>
        <additional-files value="sumo/detectors.xml"/>
    </input>

    <output>
        <tripinfo-output value="sumo/tripinfo.xml"/>
    </output>

    <time>
        <begin value="0"/>
        <end value="7200"/>
        <step-length value="0.1"/>
    </time>

    <processing>
        <ignore-junction-blocker value="30"/>
        <time-to-teleport value="7200"/>
    </processing>

</configuration>
