<?xml version="1.0" encoding="UTF-8"?>

<!-- generated on 6/2/2017 12:36:40 AM by SUMO gui Version 0.29.0
<?xml version="1.0" encoding="UTF-8"?>

<configuration xmlns:xsi="http://www.w3.org/2001/XMLSchema-instance" xsi:noNamespaceSchemaLocation="http://sumo.dlr.de/xsd/sumo-gui.exeConfiguration.xsd">

    <input>
        <net-file value="C:\Users\yli\Dropbox\sure\new_controllor\sumo\Vanderbilt_sub.net.xml"/>
        <route-files value="C:\Users\yli\Dropbox\sure\new_controllor\sumo\subVandy_test.xml"/>
        <additional-files value="C:\Users\yli\Dropbox\sure\new_controllor\sumo\detectors.xml"/>
    </input>

    <output>
        <tripinfo-output value="C:\Users\yli\Dropbox\sure\new_controllor\sumo\tripinfo.xml"/>
    </output>

    <time>
        <begin value="0"/>
        <end value="7200"/>
        <step-length value="0.1"/>
    </time>

    <processing>
        <ignore-junction-blocker value="30"/>
        <time-to-teleport value="7200"/>
    </processing>

</configuration>
