<?xml version="1.0" encoding="UTF-8"?>

<!-- generated on Fri Jun  2 00:05:43 2017 by SUMO netconvert Version 0.26.0
<?xml version="1.0" encoding="UTF-8"?>

<configuration xmlns:xsi="http://www.w3.org/2001/XMLSchema-instance" xsi:noNamespaceSchemaLocation="http://sumo.dlr.de/xsd/netconvertConfiguration.xsd">

    <input>
        <sumo-net-file value="Vanderbilt.net.xml"/>
    </input>

    <output>
        <output-file value="Vanderbilt_sub.net.xml"/>
    </output>

    <edge_removal>
        <keep-edges.in-boundary value="2307.11,2238.85,3911.26,3902.59"/>
    </edge_removal>

    <processing>
        <no-turnarounds value="true"/>
        <offset.disable-normalization value="true"/>
        <lefthand value="false"/>
        <junctions.corner-detail value="0"/>
    </processing>

</configuration>
-->

<net version="0.25" xmlns:xsi="http://www.w3.org/2001/XMLSchema-instance" xsi:noNamespaceSchemaLocation="http://sumo.dlr.de/xsd/net_file.xsd">

    <location netOffset="-514196.31,-3996895.91" convBoundary="1998.52,2113.41,4034.55,4076.80" origBoundary="-86.860450,36.116562,-86.759558,36.170595" projParameter="+proj=utm +zone=16 +ellps=WGS84 +datum=WGS84 +units=m +no_defs"/>

    <edge id=":1443088087_0" function="internal">
        <lane id=":1443088087_0_0" index="0" speed="13.89" length="9.55" shape="3619.94,3876.18 3611.77,3871.24"/>
    </edge>
    <edge id=":1443088087_1" function="internal">
        <lane id=":1443088087_1_0" index="0" speed="20.84" length="7.90" shape="3619.94,3876.18 3618.95,3875.12 3618.74,3873.58 3619.30,3871.57 3620.63,3869.09"/>
    </edge>
    <edge id=":1443088087_2" function="internal">
        <lane id=":1443088087_2_0" index="0" speed="13.89" length="4.82" shape="3619.94,3876.18 3619.30,3874.84 3619.38,3873.92 3620.16,3873.42 3621.64,3873.36"/>
    </edge>
    <edge id=":1443088087_3" function="internal">
        <lane id=":1443088087_3_0" index="0" speed="20.84" length="5.11" shape="3613.47,3868.42 3614.75,3868.96 3615.90,3868.95 3616.93,3868.41 3617.84,3867.33"/>
    </edge>
    <edge id=":1443088087_4" function="internal">
        <lane id=":1443088087_4_0" index="0" speed="13.89" length="9.55" shape="3613.47,3868.42 3621.64,3873.36"/>
    </edge>
    <edge id=":1443088087_5" function="internal">
        <lane id=":1443088087_5_0" index="0" speed="13.89" length="4.82" shape="3613.47,3868.42 3614.11,3869.77 3614.03,3870.69 3613.25,3871.18 3611.77,3871.24"/>
    </edge>
    <edge id=":1443088087_6" function="internal">
        <lane id=":1443088087_6_0" index="0" speed="20.84" length="5.02" shape="3612.81,3875.53 3613.34,3874.25 3613.35,3873.11 3612.82,3872.11 3611.77,3871.24"/>
    </edge>
    <edge id=":1443088087_7" function="internal">
        <lane id=":1443088087_7_0" index="0" speed="27.78" length="9.58" shape="3612.81,3875.53 3617.84,3867.33"/>
        <lane id=":1443088087_7_1" index="1" speed="27.78" length="9.58" shape="3615.64,3877.22 3620.63,3869.09"/>
    </edge>
    <edge id=":1443088087_9" function="internal">
        <lane id=":1443088087_9_0" index="0" speed="20.84" length="7.89" shape="3615.64,3877.22 3617.25,3874.91 3618.79,3873.50 3620.25,3872.98 3621.64,3873.36"/>
    </edge>
    <edge id=":1443088091_0" function="internal">
        <lane id=":1443088091_0_0" index="0" speed="20.84" length="9.84" shape="2887.93,2981.27 2887.32,2979.68 2885.97,2978.04 2883.87,2976.36 2881.04,2974.63"/>
    </edge>
    <edge id=":1443088091_1" function="internal">
        <lane id=":1443088091_1_0" index="0" speed="27.78" length="12.11" shape="2887.93,2981.27 2887.38,2977.72 2887.00,2975.29 2886.61,2972.86 2886.05,2969.32"/>
        <lane id=":1443088091_1_1" index="1" speed="27.78" length="12.11" shape="2891.19,2980.78 2890.65,2977.22 2890.26,2974.79 2889.87,2972.36 2889.31,2968.80"/>
    </edge>
    <edge id=":1443088091_3" function="internal">
        <lane id=":1443088091_3_0" index="0" speed="27.78" length="2.41" shape="2891.19,2980.78 2891.82,2979.43 2892.57,2978.90"/>
    </edge>
    <edge id=":1443088091_11" function="internal">
        <lane id=":1443088091_11_0" index="0" speed="27.78" length="2.41" shape="2892.57,2978.90 2893.45,2979.19 2894.45,2980.29"/>
    </edge>
    <edge id=":1443088091_4" function="internal">
        <lane id=":1443088091_4_0" index="0" speed="27.78" length="12.16" shape="2895.83,2967.77 2896.40,2971.34 2896.79,2973.78 2897.17,2976.22 2897.72,2979.79"/>
        <lane id=":1443088091_4_1" index="1" speed="27.78" length="12.16" shape="2892.57,2968.29 2893.14,2971.85 2893.53,2974.28 2893.91,2976.72 2894.45,2980.29"/>
    </edge>
    <edge id=":1443088091_6" function="internal">
        <lane id=":1443088091_6_0" index="0" speed="20.84" length="6.96" shape="2892.57,2968.29 2892.67,2973.87 2891.92,2975.03"/>
    </edge>
    <edge id=":1443088091_7" function="internal">
        <lane id=":1443088091_7_0" index="0" speed="27.78" length="2.41" shape="2892.57,2968.29 2891.95,2969.64 2891.20,2970.18"/>
    </edge>
    <edge id=":1443088091_12" function="internal">
        <lane id=":1443088091_12_0" index="0" speed="20.84" length="12.33" shape="2891.92,2975.03 2890.78,2976.79 2886.90,2977.04 2881.04,2974.63"/>
    </edge>
    <edge id=":1443088091_13" function="internal">
        <lane id=":1443088091_13_0" index="0" speed="27.78" length="2.41" shape="2891.20,2970.18 2890.32,2969.90 2889.31,2968.80"/>
    </edge>
    <edge id=":1443088091_8" function="internal">
        <lane id=":1443088091_8_0" index="0" speed="20.84" length="6.18" shape="2882.62,2971.73 2884.40,2972.44 2885.56,2972.27 2886.11,2971.23 2886.05,2969.32"/>
    </edge>
    <edge id=":1443088091_9" function="internal">
        <lane id=":1443088091_9_0" index="0" speed="20.84" length="14.77" shape="2882.62,2971.73 2887.67,2974.62 2891.32,2977.01 2893.58,2978.90 2894.45,2980.29"/>
    </edge>
    <edge id=":1443088091_10" function="internal">
        <lane id=":1443088091_10_0" index="0" speed="13.89" length="4.82" shape="2882.62,2971.73 2883.31,2973.05 2883.28,2973.97 2882.52,2974.50 2881.04,2974.63"/>
    </edge>
    <edge id=":1443088097_0" function="internal">
        <lane id=":1443088097_0_0" index="0" speed="13.89" length="4.82" shape="4034.37,3251.34 4035.69,3252.03 4036.19,3252.80 4035.87,3253.67 4034.73,3254.62"/>
    </edge>
    <edge id=":1443088109_0" function="internal">
        <lane id=":1443088109_0_0" index="0" speed="20.84" length="5.21" shape="3340.66,2388.41 3340.44,2386.96 3339.81,2386.01 3338.76,2385.56 3337.30,2385.60"/>
    </edge>
    <edge id=":1443088109_1" function="internal">
        <lane id=":1443088109_1_0" index="0" speed="13.89" length="19.93" shape="3340.66,2388.41 3340.53,2383.89 3340.24,2378.45 3339.85,2373.02 3339.45,2368.52"/>
    </edge>
    <edge id=":1443088109_2" function="internal">
        <lane id=":1443088109_2_0" index="0" speed="20.84" length="13.89" shape="3340.66,2388.41 3341.03,2383.91 3342.20,2380.59 3344.18,2378.44 3346.95,2377.47"/>
    </edge>
    <edge id=":1443088109_3" function="internal">
        <lane id=":1443088109_3_0" index="0" speed="13.89" length="4.82" shape="3340.66,2388.41 3341.48,2387.17 3342.30,2386.75 3343.13,2387.16 3343.96,2388.39"/>
    </edge>
    <edge id=":1443088109_4" function="internal">
        <lane id=":1443088109_4_0" index="0" speed="20.84" length="6.44" shape="3347.75,2384.02 3346.08,2384.47 3344.90,2385.34 3344.19,2386.65 3343.96,2388.39"/>
    </edge>
    <edge id=":1443088109_5" function="internal">
        <lane id=":1443088109_5_0" index="0" speed="27.78" length="10.66" shape="3347.75,2384.02 3344.64,2384.41 3342.51,2384.71 3340.39,2385.06 3337.30,2385.60"/>
        <lane id=":1443088109_5_1" index="1" speed="27.78" length="10.66" shape="3347.35,2380.74 3344.19,2381.14 3342.02,2381.44 3339.87,2381.80 3336.72,2382.35"/>
    </edge>
    <edge id=":1443088109_7" function="internal">
        <lane id=":1443088109_7_0" index="0" speed="20.84" length="4.11" shape="3347.35,2380.74 3344.40,2380.28 3343.59,2379.50"/>
    </edge>
    <edge id=":1443088109_8" function="internal">
        <lane id=":1443088109_8_0" index="0" speed="27.78" length="2.41" shape="3347.35,2380.74 3346.02,2380.07 3345.52,2379.30"/>
    </edge>
    <edge id=":1443088109_19" function="internal">
        <lane id=":1443088109_19_0" index="0" speed="20.84" length="12.04" shape="3343.59,2379.50 3342.10,2378.09 3340.45,2374.17 3339.45,2368.52"/>
    </edge>
    <edge id=":1443088109_20" function="internal">
        <lane id=":1443088109_20_0" index="0" speed="27.78" length="2.41" shape="3345.52,2379.30 3345.83,2378.44 3346.95,2377.47"/>
    </edge>
    <edge id=":1443088109_9" function="internal">
        <lane id=":1443088109_9_0" index="0" speed="20.84" length="5.02" shape="3342.73,2368.18 3343.06,2369.52 3343.75,2370.42 3344.78,2370.89 3346.16,2370.92"/>
    </edge>
    <edge id=":1443088109_10" function="internal">
        <lane id=":1443088109_10_0" index="0" speed="13.89" length="20.25" shape="3342.73,2368.18 3343.13,2372.73 3343.53,2378.27 3343.83,2383.82 3343.96,2388.39"/>
    </edge>
    <edge id=":1443088109_11" function="internal">
        <lane id=":1443088109_11_0" index="0" speed="20.84" length="16.98" shape="3342.73,2368.18 3342.85,2373.90 3341.89,2378.16 3339.85,2380.98 3336.72,2382.35"/>
    </edge>
    <edge id=":1443088109_12" function="internal">
        <lane id=":1443088109_12_0" index="0" speed="13.89" length="4.82" shape="3342.73,2368.18 3342.04,2369.50 3341.26,2369.99 3340.39,2369.67 3339.45,2368.52"/>
    </edge>
    <edge id=":1443088109_13" function="internal">
        <lane id=":1443088109_13_0" index="0" speed="20.84" length="6.71" shape="3335.00,2372.60 3337.07,2372.03 3338.50,2371.16 3339.29,2369.99 3339.45,2368.52"/>
    </edge>
    <edge id=":1443088109_14" function="internal">
        <lane id=":1443088109_14_0" index="0" speed="27.78" length="11.11" shape="3335.00,2372.60 3338.30,2372.02 3340.56,2371.65 3342.83,2371.33 3346.16,2370.92"/>
        <lane id=":1443088109_14_1" index="1" speed="27.78" length="11.11" shape="3335.58,2375.85 3338.82,2375.28 3341.05,2374.91 3343.28,2374.60 3346.56,2374.19"/>
        <lane id=":1443088109_14_2" index="2" speed="27.78" length="11.11" shape="3336.15,2379.10 3339.35,2378.54 3341.54,2378.18 3343.73,2377.87 3346.95,2377.47"/>
    </edge>
    <edge id=":1443088109_17" function="internal">
        <lane id=":1443088109_17_0" index="0" speed="20.84" length="4.95" shape="3336.15,2379.10 3339.54,2379.17 3340.85,2380.01"/>
    </edge>
    <edge id=":1443088109_18" function="internal">
        <lane id=":1443088109_18_0" index="0" speed="27.78" length="2.41" shape="3336.15,2379.10 3337.51,2379.70 3338.06,2380.44"/>
    </edge>
    <edge id=":1443088109_21" function="internal">
        <lane id=":1443088109_21_0" index="0" speed="20.84" length="9.35" shape="3340.85,2380.01 3341.98,2380.74 3343.45,2383.81 3343.96,2388.39"/>
    </edge>
    <edge id=":1443088109_22" function="internal">
        <lane id=":1443088109_22_0" index="0" speed="27.78" length="2.41" shape="3338.06,2380.44 3337.80,2381.32 3336.72,2382.35"/>
    </edge>
    <edge id=":1443088116_0" function="internal">
        <lane id=":1443088116_0_0" index="0" speed="27.78" length="8.97" shape="3741.70,2478.05 3740.53,2469.24"/>
        <lane id=":1443088116_0_1" index="1" speed="27.78" length="8.97" shape="3744.98,2477.70 3743.79,2468.72"/>
    </edge>
    <edge id=":1443088116_2" function="internal">
        <lane id=":1443088116_2_0" index="0" speed="20.84" length="4.30" shape="3744.98,2477.70 3745.29,2474.90 3746.16,2473.70"/>
    </edge>
    <edge id=":1443088116_3" function="internal">
        <lane id=":1443088116_3_0" index="0" speed="27.78" length="2.41" shape="3744.98,2477.70 3745.67,2476.38 3746.45,2475.89"/>
    </edge>
    <edge id=":1443088116_11" function="internal">
        <lane id=":1443088116_11_0" index="0" speed="20.84" length="8.68" shape="3746.16,2473.70 3746.87,2472.74 3749.73,2471.20 3753.87,2470.30"/>
    </edge>
    <edge id=":1443088116_12" function="internal">
        <lane id=":1443088116_12_0" index="0" speed="27.78" length="2.41" shape="3746.45,2475.89 3747.31,2476.21 3748.26,2477.35"/>
    </edge>
    <edge id=":1443088116_4" function="internal">
        <lane id=":1443088116_4_0" index="0" speed="20.84" length="4.98" shape="3754.27,2473.58 3752.95,2473.93 3752.06,2474.62 3751.59,2475.65 3751.54,2477.01"/>
    </edge>
    <edge id=":1443088116_5" function="internal">
        <lane id=":1443088116_5_0" index="0" speed="20.84" length="12.90" shape="3754.27,2473.58 3750.05,2473.71 3746.89,2472.94 3744.80,2471.28 3743.79,2468.72"/>
    </edge>
    <edge id=":1443088116_6" function="internal">
        <lane id=":1443088116_6_0" index="0" speed="13.89" length="4.82" shape="3754.27,2473.58 3752.94,2472.91 3752.43,2472.14 3752.74,2471.27 3753.87,2470.30"/>
    </edge>
    <edge id=":1443088116_7" function="internal">
        <lane id=":1443088116_7_0" index="0" speed="20.84" length="5.01" shape="3750.30,2467.67 3750.71,2468.96 3751.44,2469.83 3752.49,2470.28 3753.87,2470.30"/>
    </edge>
    <edge id=":1443088116_8" function="internal">
        <lane id=":1443088116_8_0" index="0" speed="27.78" length="9.33" shape="3750.30,2467.67 3751.54,2477.01"/>
        <lane id=":1443088116_8_1" index="1" speed="27.78" length="9.33" shape="3747.05,2468.20 3748.26,2477.35"/>
    </edge>
    <edge id=":1443088116_10" function="internal">
        <lane id=":1443088116_10_0" index="0" speed="27.78" length="2.51" shape="3747.05,2468.20 3746.43,2469.55 3745.68,2470.09 3745.58,2470.06"/>
    </edge>
    <edge id=":1443088116_13" function="internal">
        <lane id=":1443088116_13_0" index="0" speed="27.78" length="2.31" shape="3745.58,2470.06 3744.80,2469.81 3743.79,2468.72"/>
    </edge>
    <edge id=":1443088122_0" function="internal">
        <lane id=":1443088122_0_0" index="0" speed="13.89" length="5.01" shape="3422.74,3756.97 3421.47,3756.43 3420.34,3756.43 3419.34,3756.97 3418.49,3758.05"/>
    </edge>
    <edge id=":1443088122_1" function="internal">
        <lane id=":1443088122_1_0" index="0" speed="13.89" length="10.32" shape="3422.74,3756.97 3420.53,3755.18 3419.42,3753.11 3419.39,3750.78 3420.45,3748.18"/>
    </edge>
    <edge id=":1443088122_2" function="internal">
        <lane id=":1443088122_2_0" index="0" speed="13.89" length="4.82" shape="3422.74,3756.97 3422.10,3755.62 3422.18,3754.71 3422.96,3754.21 3424.44,3754.15"/>
    </edge>
    <edge id=":1443088122_3" function="internal">
        <lane id=":1443088122_3_0" index="0" speed="13.89" length="5.05" shape="3423.30,3749.85 3422.78,3751.12 3422.80,3752.26 3423.36,3753.26 3424.44,3754.15"/>
    </edge>
    <edge id=":1443088122_4" function="internal">
        <lane id=":1443088122_4_0" index="0" speed="13.89" length="9.50" shape="3423.30,3749.85 3418.49,3758.05"/>
    </edge>
    <edge id=":1443088122_5" function="internal">
        <lane id=":1443088122_5_0" index="0" speed="13.89" length="2.41" shape="3423.30,3749.85 3421.96,3750.50 3421.04,3750.44"/>
    </edge>
    <edge id=":1443088122_9" function="internal">
        <lane id=":1443088122_9_0" index="0" speed="13.89" length="2.41" shape="3421.04,3750.44 3420.53,3749.67 3420.45,3748.18"/>
    </edge>
    <edge id=":1443088122_6" function="internal">
        <lane id=":1443088122_6_0" index="0" speed="13.89" length="9.50" shape="3415.64,3756.38 3420.45,3748.18"/>
    </edge>
    <edge id=":1443088122_7" function="internal">
        <lane id=":1443088122_7_0" index="0" speed="13.89" length="5.19" shape="3415.64,3756.38 3417.42,3754.15 3419.48,3753.03"/>
    </edge>
    <edge id=":1443088122_8" function="internal">
        <lane id=":1443088122_8_0" index="0" speed="13.89" length="2.41" shape="3415.64,3756.38 3416.98,3755.73 3417.90,3755.79"/>
    </edge>
    <edge id=":1443088122_10" function="internal">
        <lane id=":1443088122_10_0" index="0" speed="13.89" length="5.19" shape="3419.48,3753.03 3421.82,3753.03 3424.44,3754.15"/>
    </edge>
    <edge id=":1443088122_11" function="internal">
        <lane id=":1443088122_11_0" index="0" speed="13.89" length="2.41" shape="3417.90,3755.79 3418.40,3756.56 3418.49,3758.05"/>
    </edge>
    <edge id=":1443088138_0" function="internal">
        <lane id=":1443088138_0_0" index="0" speed="13.89" length="5.68" shape="3833.79,3520.72 3836.09,3516.02"/>
        <lane id=":1443088138_0_1" index="1" speed="13.89" length="5.68" shape="3836.62,3522.42 3839.27,3516.91"/>
    </edge>
    <edge id=":1443088138_2" function="internal">
        <lane id=":1443088138_2_0" index="0" speed="13.89" length="5.26" shape="3836.62,3522.42 3837.56,3521.28 3838.59,3520.79 3839.72,3520.96 3840.95,3521.80"/>
    </edge>
    <edge id=":1443088140_0" function="internal">
        <lane id=":1443088140_0_0" index="0" allow="delivery" speed="16.67" length="5.30" shape="3829.74,3280.32 3829.36,3278.88 3828.64,3277.91 3827.57,3277.40 3826.16,3277.35"/>
    </edge>
    <edge id=":1443088140_1" function="internal">
        <lane id=":1443088140_1_0" index="0" speed="27.78" length="9.72" shape="3829.74,3280.32 3828.61,3270.65"/>
        <lane id=":1443088140_1_1" index="1" speed="27.78" length="9.72" shape="3833.01,3279.92 3831.89,3270.28"/>
    </edge>
    <edge id=":1443088140_3" function="internal">
        <lane id=":1443088140_3_0" index="0" speed="20.84" length="4.55" shape="3833.01,3279.92 3833.28,3277.03 3834.23,3275.69"/>
    </edge>
    <edge id=":1443088140_4" function="internal">
        <lane id=":1443088140_4_0" index="0" speed="27.78" length="2.41" shape="3833.01,3279.92 3833.68,3278.59 3834.45,3278.08"/>
    </edge>
    <edge id=":1443088140_18" function="internal">
        <lane id=":1443088140_18_0" index="0" speed="20.84" length="8.62" shape="3834.23,3275.69 3834.85,3274.82 3837.74,3273.28 3841.93,3272.41"/>
    </edge>
    <edge id=":1443088140_19" function="internal">
        <lane id=":1443088140_19_0" index="0" speed="27.78" length="2.41" shape="3834.45,3278.08 3835.32,3278.39 3836.29,3279.52"/>
    </edge>
    <edge id=":1443088140_5" function="internal">
        <lane id=":1443088140_5_0" index="0" speed="20.84" length="5.01" shape="3842.29,3275.69 3840.96,3276.03 3840.06,3276.72 3839.60,3277.75 3839.57,3279.13"/>
    </edge>
    <edge id=":1443088140_6" function="internal">
        <lane id=":1443088140_6_0" index="0" allow="delivery" speed="9.73" length="16.22" shape="3842.29,3275.69 3838.37,3276.10 3834.22,3276.51 3830.08,3276.92 3826.16,3277.35"/>
    </edge>
    <edge id=":1443088140_7" function="internal">
        <lane id=":1443088140_7_0" index="0" speed="20.84" length="13.21" shape="3842.29,3275.69 3838.01,3275.75 3834.85,3274.87 3832.81,3273.05 3831.89,3270.28"/>
    </edge>
    <edge id=":1443088140_8" function="internal">
        <lane id=":1443088140_8_0" index="0" speed="13.89" length="4.82" shape="3842.29,3275.69 3840.97,3275.00 3840.47,3274.23 3840.79,3273.36 3841.93,3272.41"/>
    </edge>
    <edge id=":1443088140_9" function="internal">
        <lane id=":1443088140_9_0" index="0" speed="20.84" length="5.13" shape="3838.45,3269.55 3838.80,3270.93 3839.50,3271.87 3840.54,3272.36 3841.93,3272.41"/>
    </edge>
    <edge id=":1443088140_10" function="internal">
        <lane id=":1443088140_10_0" index="0" speed="27.78" length="9.65" shape="3838.45,3269.55 3839.57,3279.13"/>
        <lane id=":1443088140_10_1" index="1" speed="27.78" length="9.65" shape="3835.17,3269.92 3836.29,3279.52"/>
    </edge>
    <edge id=":1443088140_12" function="internal">
        <lane id=":1443088140_12_0" index="0" allow="delivery" speed="16.67" length="4.42" shape="3835.17,3269.92 3834.87,3272.74 3833.94,3274.01"/>
    </edge>
    <edge id=":1443088140_13" function="internal">
        <lane id=":1443088140_13_0" index="0" speed="27.78" length="2.41" shape="3835.17,3269.92 3834.49,3271.24 3833.71,3271.74"/>
    </edge>
    <edge id=":1443088140_20" function="internal">
        <lane id=":1443088140_20_0" index="0" speed="16.67" length="8.71" shape="3833.94,3274.01 3833.27,3274.92 3830.36,3276.46 3826.16,3277.35"/>
    </edge>
    <edge id=":1443088140_21" function="internal">
        <lane id=":1443088140_21_0" index="0" speed="27.78" length="2.41" shape="3833.71,3271.74 3832.85,3271.42 3831.89,3270.28"/>
    </edge>
    <edge id=":1443088140_14" function="internal">
        <lane id=":1443088140_14_0" index="0" speed="16.67" length="5.01" shape="3825.85,3274.07 3827.18,3273.72 3828.09,3273.03 3828.57,3272.01 3828.61,3270.65"/>
    </edge>
    <edge id=":1443088140_15" function="internal">
        <lane id=":1443088140_15_0" index="0" speed="9.73" length="16.17" shape="3825.85,3274.07 3829.76,3273.64 3833.89,3273.22 3838.02,3272.82 3841.93,3272.41"/>
    </edge>
    <edge id=":1443088140_16" function="internal">
        <lane id=":1443088140_16_0" index="0" speed="16.67" length="13.29" shape="3825.85,3274.07 3830.12,3273.98 3833.28,3274.86 3835.34,3276.71 3836.29,3279.52"/>
    </edge>
    <edge id=":1443088140_17" function="internal">
        <lane id=":1443088140_17_0" index="0" allow="delivery" speed="5.56" length="4.82" shape="3825.85,3274.07 3827.16,3274.77 3827.65,3275.56 3827.31,3276.42 3826.16,3277.35"/>
    </edge>
    <edge id=":1443088149_0" function="internal">
        <lane id=":1443088149_0_0" index="0" speed="13.89" length="6.99" shape="2863.44,2965.00 2861.35,2964.09 2859.61,2963.84 2858.21,2964.25 2857.17,2965.32"/>
    </edge>
    <edge id=":1443088149_1" function="internal">
        <lane id=":1443088149_1_0" index="0" speed="13.89" length="11.62" shape="2863.44,2965.00 2860.61,2963.46 2858.35,2962.20 2856.10,2960.93 2853.31,2959.32"/>
    </edge>
    <edge id=":1443088149_2" function="internal">
        <lane id=":1443088149_2_0" index="0" speed="13.89" length="5.89" shape="2863.44,2965.00 2860.32,2962.70 2859.47,2960.88"/>
    </edge>
    <edge id=":1443088149_3" function="internal">
        <lane id=":1443088149_3_0" index="0" speed="13.89" length="2.41" shape="2863.44,2965.00 2862.75,2963.69 2862.78,2962.77"/>
    </edge>
    <edge id=":1443088149_16" function="internal">
        <lane id=":1443088149_16_0" index="0" speed="13.89" length="7.21" shape="2859.47,2960.88 2859.19,2960.28 2860.04,2957.75 2862.89,2955.11"/>
    </edge>
    <edge id=":1443088149_17" function="internal">
        <lane id=":1443088149_17_0" index="0" speed="13.89" length="2.41" shape="2862.78,2962.77 2863.54,2962.24 2865.02,2962.11"/>
    </edge>
    <edge id=":1443088149_4" function="internal">
        <lane id=":1443088149_4_0" index="0" speed="13.89" length="5.69" shape="2864.78,2957.81 2863.55,2958.96 2863.18,2960.06 2863.67,2961.11 2865.02,2962.11"/>
    </edge>
    <edge id=":1443088149_5" function="internal">
        <lane id=":1443088149_5_0" index="0" speed="13.89" length="10.81" shape="2864.78,2957.81 2862.24,2959.60 2860.43,2961.05 2858.90,2962.76 2857.17,2965.32"/>
    </edge>
    <edge id=":1443088149_6" function="internal">
        <lane id=":1443088149_6_0" index="0" speed="13.89" length="12.25" shape="2864.78,2957.81 2861.68,2959.59 2858.73,2960.43 2855.94,2960.34 2853.31,2959.32"/>
    </edge>
    <edge id=":1443088149_7" function="internal">
        <lane id=":1443088149_7_0" index="0" speed="13.89" length="4.82" shape="2864.78,2957.81 2863.30,2957.85 2862.48,2957.41 2862.35,2956.50 2862.89,2955.11"/>
    </edge>
    <edge id=":1443088149_8" function="internal">
        <lane id=":1443088149_8_0" index="0" speed="13.89" length="8.49" shape="2854.96,2956.47 2856.69,2957.10 2858.59,2957.08 2860.65,2956.42 2862.89,2955.11"/>
    </edge>
    <edge id=":1443088149_9" function="internal">
        <lane id=":1443088149_9_0" index="0" speed="13.89" length="11.53" shape="2854.96,2956.47 2857.74,2958.07 2859.97,2959.33 2862.21,2960.57 2865.02,2962.11"/>
    </edge>
    <edge id=":1443088149_10" function="internal">
        <lane id=":1443088149_10_0" index="0" speed="13.89" length="5.24" shape="2854.96,2956.47 2857.23,2958.25 2858.35,2960.33"/>
    </edge>
    <edge id=":1443088149_11" function="internal">
        <lane id=":1443088149_11_0" index="0" speed="13.89" length="2.41" shape="2854.96,2956.47 2855.62,2957.80 2855.56,2958.72"/>
    </edge>
    <edge id=":1443088149_18" function="internal">
        <lane id=":1443088149_18_0" index="0" speed="13.89" length="5.24" shape="2858.35,2960.33 2858.33,2962.68 2857.17,2965.32"/>
    </edge>
    <edge id=":1443088149_19" function="internal">
        <lane id=":1443088149_19_0" index="0" speed="13.89" length="2.41" shape="2855.56,2958.72 2854.79,2959.23 2853.31,2959.32"/>
    </edge>
    <edge id=":1443088149_12" function="internal">
        <lane id=":1443088149_12_0" index="0" speed="13.89" length="5.04" shape="2854.37,2963.58 2854.92,2962.31 2854.93,2961.18 2854.39,2960.18 2853.31,2959.32"/>
    </edge>
    <edge id=":1443088149_13" function="internal">
        <lane id=":1443088149_13_0" index="0" speed="13.89" length="12.12" shape="2854.37,2963.58 2856.24,2960.87 2858.08,2958.83 2860.20,2957.05 2862.89,2955.11"/>
    </edge>
    <edge id=":1443088149_14" function="internal">
        <lane id=":1443088149_14_0" index="0" speed="13.89" length="12.07" shape="2854.37,2963.58 2856.30,2961.44 2858.72,2960.49 2861.63,2960.71 2865.02,2962.11"/>
    </edge>
    <edge id=":1443088149_15" function="internal">
        <lane id=":1443088149_15_0" index="0" speed="13.89" length="4.82" shape="2854.37,2963.58 2855.72,2962.96 2856.64,2963.05 2857.12,2963.83 2857.17,2965.32"/>
    </edge>
    <edge id=":1443088152_0" function="internal">
        <lane id=":1443088152_0_0" index="0" speed="27.78" length="19.12" shape="3853.98,3477.99 3853.19,3472.37 3852.61,3468.52 3852.05,3464.67 3851.34,3459.03"/>
        <lane id=":1443088152_0_1" index="1" speed="27.78" length="19.12" shape="3857.25,3477.56 3856.46,3471.94 3855.88,3468.11 3855.33,3464.27 3854.62,3458.64"/>
    </edge>
    <edge id=":1443088152_2" function="internal">
        <lane id=":1443088152_2_0" index="0" speed="27.78" length="2.41" shape="3857.25,3477.56 3857.90,3476.22 3858.67,3475.70"/>
    </edge>
    <edge id=":1443088152_8" function="internal">
        <lane id=":1443088152_8_0" index="0" speed="27.78" length="2.41" shape="3858.67,3475.70 3859.54,3476.00 3860.52,3477.12"/>
    </edge>
    <edge id=":1443088152_3" function="internal">
        <lane id=":1443088152_3_0" index="0" speed="27.78" length="19.02" shape="3861.17,3457.87 3861.88,3463.46 3862.43,3467.28 3863.01,3471.09 3863.79,3476.68"/>
        <lane id=":1443088152_3_1" index="1" speed="27.78" length="19.02" shape="3857.90,3458.26 3858.60,3463.86 3859.15,3467.69 3859.73,3471.52 3860.52,3477.12"/>
    </edge>
    <edge id=":1443088152_5" function="internal">
        <lane id=":1443088152_5_0" index="0" speed="27.78" length="2.41" shape="3857.90,3458.26 3857.22,3459.58 3856.45,3460.09"/>
    </edge>
    <edge id=":1443088152_9" function="internal">
        <lane id=":1443088152_9_0" index="0" speed="27.78" length="2.41" shape="3856.45,3460.09 3855.59,3459.78 3854.62,3458.64"/>
    </edge>
    <edge id=":1443088152_6" function="internal">
        <lane id=":1443088152_6_0" index="0" speed="20.84" length="18.60" shape="3847.07,3476.84 3848.93,3471.62 3850.54,3468.04 3851.48,3464.41 3851.34,3459.03"/>
    </edge>
    <edge id=":1443088152_7" function="internal">
        <lane id=":1443088152_7_0" index="0" speed="20.84" length="27.28" shape="3850.25,3477.73 3853.52,3468.33 3856.32,3465.09 3858.65,3468.02 3860.52,3477.12"/>
    </edge>
    <edge id=":1443088153_0" function="internal">
        <lane id=":1443088153_0_0" index="0" speed="20.84" length="5.01" shape="3483.83,3652.83 3482.56,3652.30 3481.43,3652.31 3480.44,3652.85 3479.58,3653.92"/>
    </edge>
    <edge id=":1443088153_1" function="internal">
        <lane id=":1443088153_1_0" index="0" speed="27.78" length="9.44" shape="3483.83,3652.83 3475.71,3647.93"/>
        <lane id=":1443088153_1_1" index="1" speed="27.78" length="9.44" shape="3485.51,3649.99 3477.43,3645.12"/>
        <lane id=":1443088153_1_2" index="2" speed="27.78" length="9.44" shape="3487.20,3647.15 3479.15,3642.30"/>
    </edge>
    <edge id=":1443088153_4" function="internal">
        <lane id=":1443088153_4_0" index="0" speed="27.78" length="2.41" shape="3487.20,3647.15 3486.55,3645.81 3486.62,3644.89"/>
    </edge>
    <edge id=":1443088153_14" function="internal">
        <lane id=":1443088153_14_0" index="0" speed="27.78" length="2.41" shape="3486.62,3644.89 3487.40,3644.39 3488.88,3644.31"/>
    </edge>
    <edge id=":1443088153_5" function="internal">
        <lane id=":1443088153_5_0" index="0" speed="27.78" length="9.31" shape="3484.32,3633.86 3492.25,3638.64"/>
        <lane id=":1443088153_5_1" index="1" speed="27.78" length="9.31" shape="3482.60,3636.67 3490.57,3641.48"/>
        <lane id=":1443088153_5_2" index="2" speed="27.78" length="9.31" shape="3480.87,3639.49 3488.88,3644.31"/>
    </edge>
    <edge id=":1443088153_8" function="internal">
        <lane id=":1443088153_8_0" index="0" speed="20.84" length="3.96" shape="3480.87,3639.49 3482.77,3641.60 3482.92,3642.71"/>
    </edge>
    <edge id=":1443088153_9" function="internal">
        <lane id=":1443088153_9_0" index="0" speed="27.78" length="2.41" shape="3480.87,3639.49 3481.50,3640.84 3481.42,3641.76"/>
    </edge>
    <edge id=":1443088153_15" function="internal">
        <lane id=":1443088153_15_0" index="0" speed="20.84" length="11.97" shape="3482.92,3642.71 3483.19,3644.71 3482.13,3648.82 3479.58,3653.92"/>
    </edge>
    <edge id=":1443088153_16" function="internal">
        <lane id=":1443088153_16_0" index="0" speed="27.78" length="2.41" shape="3481.42,3641.76 3480.64,3642.25 3479.15,3642.30"/>
    </edge>
    <edge id=":1443088153_10" function="internal">
        <lane id=":1443088153_10_0" index="0" speed="20.84" length="5.04" shape="3476.73,3652.25 3477.27,3650.96 3477.27,3649.81 3476.75,3648.80 3475.71,3647.93"/>
    </edge>
    <edge id=":1443088153_11" function="internal">